\BOOKMARK [1][-]{section.1}{CIP 1: Selection of main parameters and rotor design}{}% 1
\BOOKMARK [2][-]{subsection.1.1}{Total conversion efficiency}{section.1}% 2
\BOOKMARK [2][-]{subsection.1.2}{Wind Power for nominal electrical power}{section.1}% 3
\BOOKMARK [2][-]{subsection.1.3}{Rated wind speed}{section.1}% 4
\BOOKMARK [2][-]{subsection.1.4}{Rotor radius}{section.1}% 5
\BOOKMARK [2][-]{subsection.1.5}{Rotor area and specific rating}{section.1}% 6
\BOOKMARK [2][-]{subsection.1.6}{Rotor rated speed \046 design tip speed ratio}{section.1}% 7
\BOOKMARK [2][-]{subsection.1.7}{Annual Energy Production}{section.1}% 8
\BOOKMARK [2][-]{subsection.1.8}{Main aerodynamic properties}{section.1}% 9
\BOOKMARK [1][-]{section.2}{CIP 2: Advanced BEM }{}% 10
\BOOKMARK [2][-]{subsection.2.1}{Design your blade according to Betz theory}{section.2}% 11
\BOOKMARK [2][-]{subsection.2.2}{Design according to Schmitz}{section.2}% 12
\BOOKMARK [1][-]{section.3}{CIP 3: Performance Curves}{}% 13
\BOOKMARK [2][-]{subsection.3.1}{Introduction}{section.3}% 14
\BOOKMARK [2][-]{subsection.3.2}{WT\137Perf}{section.3}% 15
\BOOKMARK [2][-]{subsection.3.3}{3.1,3.2}{section.3}% 16
\BOOKMARK [2][-]{subsection.3.4}{3.4}{section.3}% 17
\BOOKMARK [2][-]{subsection.3.5}{3.5, 3.6}{section.3}% 18
\BOOKMARK [2][-]{subsection.3.6}{3.7,3.8}{section.3}% 19
\BOOKMARK [2][-]{subsection.3.7}{3.9}{section.3}% 20
\BOOKMARK [2][-]{subsection.3.8}{3.10}{section.3}% 21
\BOOKMARK [1][-]{section.4}{CIP 4: Tower design}{}% 22
\BOOKMARK [2][-]{subsection.4.1}{Eigenfrequency}{section.4}% 23
\BOOKMARK [2][-]{subsection.4.2}{Design range}{section.4}% 24
\BOOKMARK [2][-]{subsection.4.3}{Wall thickness}{section.4}% 25
\BOOKMARK [2][-]{subsection.4.4}{Campbell diagram}{section.4}% 26
\BOOKMARK [1][-]{section.5}{CIP 5: Windfields and wake modelling}{}% 27
\BOOKMARK [2][-]{subsection.5.1}{Wind speed distribution: Rayleigh}{section.5}% 28
\BOOKMARK [2][-]{subsection.5.2}{Power curve and AEP}{section.5}% 29
\BOOKMARK [2][-]{subsection.5.3}{Turbulence intensity under free stream conditions}{section.5}% 30
\BOOKMARK [2][-]{subsection.5.4}{Wind fields with TurbSim}{section.5}% 31
\BOOKMARK [2][-]{subsection.5.5}{Wake modelling with Frandsen}{section.5}% 32
\BOOKMARK [2][-]{subsection.5.6}{Possible faults}{section.5}% 33
\BOOKMARK [1][-]{section.6}{Fatigue loads}{}% 34
\BOOKMARK [2][-]{subsection.6.1}{FAST}{section.6}% 35
\BOOKMARK [2][-]{subsection.6.2}{Damage equivalent loads under free stream condition}{section.6}% 36
\BOOKMARK [2][-]{subsection.6.3}{Damage equivalent loads under wake condition}{section.6}% 37
\BOOKMARK [2][-]{subsection.6.4}{Statistical max/min sensor values}{section.6}% 38
\BOOKMARK [2][-]{subsection.6.5}{Power spectral density}{section.6}% 39
\BOOKMARK [1][-]{section.7}{Extreme loads}{}% 40
\BOOKMARK [2][-]{subsection.7.1}{Extreme conditions}{section.7}% 41
\BOOKMARK [2][-]{subsection.7.2}{Simulation of extreme load cases 1.5 and 2.3}{section.7}% 42
\BOOKMARK [2][-]{subsection.7.3}{Extreme load table}{section.7}% 43
\BOOKMARK [1][-]{section.8}{Summary}{}% 44
