
This summary file was generated by TurbSim (v1.06.00, 21-Sep-2012) on 13-Jul-2016 at 15:30:24.


Runtime Options:

   2318573  Random seed #1
    RANLUX  Type of random number generator
         F  Output binary HH turbulence parameters?
         F  Output formatted turbulence parameters?
         F  Output AeroDyn HH files?
         F  Output AeroDyn FF files?
         T  Output BLADED FF files?
         F  Output tower data?
         F  Output formatted FF files?
         F  Output coherent turbulence time step file?
         T  Clockwise rotation when looking downwind?
 0 -  NONE  IEC turbulence models scaled to exact specified standard deviation


Turbine/Model Specifications:

        11  Vertical grid-point matrix dimension
        11  Horizontal grid-point matrix dimension
     0.010  Time step [seconds]
   630.000  Analysis time [seconds]
   630.000  Usable output time [seconds]
   100.000  Hub height [m]
   130.000  Grid height [m]
   130.000  Grid width [m]
     0.000  Vertical flow angle [degrees]
     0.000  Horizontal flow angle [degrees]


Meteorological Boundary Conditions:

    IECKAI  IEC Kaimal spectral model
         1  IEC standard: IEC 61400-1 Ed. 3: 2005
    18.270  Percent turbulence intensity, IEC 61400-1 Ed. 3: 2005
       NTM  IEC Normal Turbulence Model
       N/A  IEC Extreme Turbulence Model (ETM) "c" parameter [m/s]
       PL   Wind profile type
    80.000  Reference height [m]
    10.000  Reference wind speed [m/s]
       N/A  Jet height [m]
     0.110  Power law exponent
     0.030  Surface roughness length [m]


You have requested that the following file(s) be generated:

   TurbSim_ws_wake10 _8.wnd (AeroDyn/BLADED full-field wnd file)


Turbulence Simulation Scaling Parameter Summary:

   Turbulence model used                            =  IEC Kaimal
   Turbulence characteristic                        =  User-specified
   IEC standard                                     =  IEC 61400-1 Ed. 3: 2005
   Mean wind speed at hub height                    =   10.248 m/s
   Characteristic value of standard deviation       =    1.872 m/s
   Turbulence scale                                 =   42.000 m
   u-component integral scale                       =  340.200 m
   Coherency scale                                  =  340.200 m
   Characteristic value of hub turbulence intensity =   18.270%
   Gradient Richardson number                       =    0.000

   Wind profile type                                =  Power law
   Power law exponent                               =    0.110
   Mean shear across rotor disk                     =    0.013 (m/s)/m
   Assumed rotor diameter                           =  130.000 m
   Surface roughness length                         =    0.030 m

   Number of time steps in the FFT                  =    64372
   Number of time steps output                      =    64269


Mean Flow Angles:

   Vertical   =   0.0 degrees
   Horizontal =   0.0 degrees

Mean Wind Speed Profile:

   Height    Wind Speed   Horizontal Angle  U-comp (X)   V-comp (Y)   W-comp (Z)
     (m)        (m/s)         (degrees)       (m/s)        (m/s)        (m/s)   
   ------    ----------   ----------------  ----------   ----------   ----------
    165.0       10.83            0.00         10.83         0.00         0.00
    152.0       10.73            0.00         10.73         0.00         0.00
    139.0       10.63            0.00         10.63         0.00         0.00
    126.0       10.51            0.00         10.51         0.00         0.00
    113.0       10.39            0.00         10.39         0.00         0.00
    100.0       10.25            0.00         10.25         0.00         0.00
     87.0       10.09            0.00         10.09         0.00         0.00
     74.0        9.91            0.00          9.91         0.00         0.00
     61.0        9.71            0.00          9.71         0.00         0.00
     48.0        9.45            0.00          9.45         0.00         0.00
     35.0        9.13            0.00          9.13         0.00         0.00


Harvested Random Seeds after Generation of the Random Numbers:

    108559305 K1
            0 K2


Hub-Height Simulated Turbulence Statistical Summary:

   Type of Wind        Min (m/s)   Mean (m/s)    Max (m/s)  Sigma (m/s)       TI (%)
   ----------------    ---------   ----------    ---------  -----------       ------
   Longitudinal (u)         4.45        10.25        15.76        1.836       17.917
   Lateral (v)             -5.45         0.00         4.92        1.469       14.336
   Vertical (w)            -3.42         0.00         3.04        0.927        9.044
   U component              4.45        10.25        15.76        1.836       17.917
   V component             -5.45         0.00         4.92        1.469       14.336
   W component             -3.42         0.00         3.04        0.927        9.044
   Horizontal (U&V)         4.51        10.36        15.78        1.824       17.617
   Total                    4.56        10.40        15.80        1.820       17.500

                       Min Reynolds     Mean Reynolds    Max Reynolds    Correlation
   Product             Stress (m/s)^2   Stress (m/s)^2   Stress (m/s)^2  Coefficient
   ----------------    --------------   --------------   --------------  -----------
   u'w'                    -10.525             0.026             9.399         0.015
   u'v'                    -15.253             0.221            14.204         0.082
   v'w'                     -7.524             0.076             7.822         0.056


   Friction Velocity (Ustar)  =      0.162 m/s
   Maximum Instantaneous TKE  =     18.584 (m/s)^2
   Maximum Instantaneous CTKE =      8.952 (m/s)^2


Grid Point Variance Summary:

   Y-coord  -65.00  -52.00  -39.00  -26.00  -13.00    0.00   13.00   26.00   39.00   52.00   65.00

   Height   Standard deviation at grid points for the u component:
   165.00    1.750   1.839   1.915   1.868   1.822   1.869   1.862   1.915   2.014   1.722   1.688
   152.00    1.769   1.857   1.823   1.860   1.723   1.903   2.035   1.879   1.912   1.842   1.869
   139.00    1.641   1.787   1.844   1.736   1.754   1.816   1.819   1.794   1.819   1.659   1.701
   126.00    1.665   1.741   1.751   1.677   1.699   1.745   1.765   1.724   1.654   1.752   1.753
   113.00    1.664   1.746   1.708   1.763   1.724   1.652   1.632   1.523   1.645   1.688   1.702
   100.00    1.549   1.758   1.837   1.648   1.684   1.836   1.796   1.522   1.602   1.676   1.642
    87.00    1.553   1.599   1.700   1.732   1.712   1.626   1.774   1.560   1.556   1.654   1.583
    74.00    1.487   1.472   1.484   1.539   1.582   1.656   1.707   1.562   1.585   1.704   1.755
    61.00    1.509   1.368   1.508   1.601   1.522   1.670   1.703   1.550   1.533   1.528   1.781
    48.00    1.629   1.397   1.490   1.541   1.518   1.626   1.469   1.610   1.492   1.727   1.738
    35.00    1.780   1.508   1.543   1.432   1.576   1.626   1.524   1.536   1.710   1.746   1.763

   Height   Standard deviation at grid points for the v component:
   165.00    1.469   1.469   1.469   1.469   1.469   1.469   1.469   1.469   1.469   1.469   1.469
   152.00    1.469   1.469   1.469   1.469   1.469   1.469   1.469   1.469   1.469   1.469   1.469
   139.00    1.469   1.469   1.469   1.469   1.469   1.469   1.469   1.469   1.469   1.469   1.469
   126.00    1.469   1.469   1.469   1.469   1.469   1.469   1.469   1.469   1.469   1.469   1.469
   113.00    1.469   1.469   1.469   1.469   1.469   1.469   1.469   1.469   1.469   1.469   1.469
   100.00    1.469   1.469   1.469   1.469   1.469   1.469   1.469   1.469   1.469   1.469   1.469
    87.00    1.469   1.469   1.469   1.469   1.469   1.469   1.469   1.469   1.469   1.469   1.469
    74.00    1.469   1.469   1.469   1.469   1.469   1.469   1.469   1.469   1.469   1.469   1.469
    61.00    1.469   1.469   1.469   1.469   1.469   1.469   1.469   1.469   1.469   1.469   1.469
    48.00    1.469   1.469   1.469   1.469   1.469   1.469   1.469   1.469   1.469   1.469   1.469
    35.00    1.469   1.469   1.469   1.469   1.469   1.469   1.469   1.469   1.469   1.469   1.469

   Height   Standard deviation at grid points for the w component:
   165.00    0.927   0.927   0.927   0.927   0.927   0.927   0.927   0.927   0.927   0.927   0.927
   152.00    0.927   0.927   0.927   0.927   0.927   0.927   0.927   0.927   0.927   0.927   0.927
   139.00    0.927   0.927   0.927   0.927   0.927   0.927   0.927   0.927   0.927   0.927   0.927
   126.00    0.927   0.927   0.927   0.927   0.927   0.927   0.927   0.927   0.927   0.927   0.927
   113.00    0.927   0.927   0.927   0.927   0.927   0.927   0.927   0.927   0.927   0.927   0.927
   100.00    0.927   0.927   0.927   0.927   0.927   0.927   0.927   0.927   0.927   0.927   0.927
    87.00    0.927   0.927   0.927   0.927   0.927   0.927   0.927   0.927   0.927   0.927   0.927
    74.00    0.927   0.927   0.927   0.927   0.927   0.927   0.927   0.927   0.927   0.927   0.927
    61.00    0.927   0.927   0.927   0.927   0.927   0.927   0.927   0.927   0.927   0.927   0.927
    48.00    0.927   0.927   0.927   0.927   0.927   0.927   0.927   0.927   0.927   0.927   0.927
    35.00    0.927   0.927   0.927   0.927   0.927   0.927   0.927   0.927   0.927   0.927   0.927

   Mean standard deviation across all grid points:
      u component:    1.685 m/s
      v component:    1.469 m/s
      w component:    0.927 m/s


U-component (X) statistics from the hub grid point:

   Mean =  10.2485 m/s
   TI   =  17.9173 %


Normalizing Parameters for Binary Data (approximate statistics):

   UBar  =  10.2485 m/s
   TI(u) =  17.9173 %
   TI(v) =  14.3364 %
   TI(w) =   9.0440 %

   Height Offset =   0.0000 m
   Grid Base     =  35.0000 m

Nyquist frequency of turbulent wind field =        50.000 Hz


Processing complete.  6.7656 CPU seconds used.
