
This summary file was generated by TurbSim (v1.06.00, 21-Sep-2012) on 12-Jul-2016 at 16:11:53.


Runtime Options:

   2318573  Random seed #1
    RANLUX  Type of random number generator
         F  Output binary HH turbulence parameters?
         F  Output formatted turbulence parameters?
         F  Output AeroDyn HH files?
         F  Output AeroDyn FF files?
         T  Output BLADED FF files?
         F  Output tower data?
         F  Output formatted FF files?
         F  Output coherent turbulence time step file?
         T  Clockwise rotation when looking downwind?
 0 -  NONE  IEC turbulence models scaled to exact specified standard deviation


Turbine/Model Specifications:

        11  Vertical grid-point matrix dimension
        11  Horizontal grid-point matrix dimension
     0.010  Time step [seconds]
   630.000  Analysis time [seconds]
   630.000  Usable output time [seconds]
   100.000  Hub height [m]
   130.000  Grid height [m]
   130.000  Grid width [m]
     0.000  Vertical flow angle [degrees]
     0.000  Horizontal flow angle [degrees]


Meteorological Boundary Conditions:

    IECKAI  IEC Kaimal spectral model
         1  IEC standard: IEC 61400-1 Ed. 3: 2005
         B  IEC turbulence characteristic
       NTM  IEC Normal Turbulence Model
       N/A  IEC Extreme Turbulence Model (ETM) "c" parameter [m/s]
       PL   Wind profile type
    80.000  Reference height [m]
    10.000  Reference wind speed [m/s]
       N/A  Jet height [m]
     0.110  Power law exponent
     0.030  Surface roughness length [m]


You have requested that the following file(s) be generated:

   TurbSim_ws_10.wnd (AeroDyn/BLADED full-field wnd file)


Turbulence Simulation Scaling Parameter Summary:

   Turbulence model used                            =  IEC Kaimal
   Turbulence characteristic                        =  B
   IEC turbulence type                              =  Normal Turbulence Model
   IEC standard                                     =  IEC 61400-1 Ed. 3: 2005
   Mean wind speed at hub height                    =   10.248 m/s
   Expected value of turbulence intensity at 15 m/s =   14.000%
   Characteristic value of standard deviation       =    1.860 m/s
   Turbulence scale                                 =   42.000 m
   u-component integral scale                       =  340.200 m
   Coherency scale                                  =  340.200 m
   Characteristic value of hub turbulence intensity =   18.150%
   Gradient Richardson number                       =    0.000

   Wind profile type                                =  Power law
   Power law exponent                               =    0.110
   Mean shear across rotor disk                     =    0.013 (m/s)/m
   Assumed rotor diameter                           =  130.000 m
   Surface roughness length                         =    0.030 m

   Number of time steps in the FFT                  =    64372
   Number of time steps output                      =    64269


Mean Flow Angles:

   Vertical   =   0.0 degrees
   Horizontal =   0.0 degrees

Mean Wind Speed Profile:

   Height    Wind Speed   Horizontal Angle  U-comp (X)   V-comp (Y)   W-comp (Z)
     (m)        (m/s)         (degrees)       (m/s)        (m/s)        (m/s)   
   ------    ----------   ----------------  ----------   ----------   ----------
    165.0       10.83            0.00         10.83         0.00         0.00
    152.0       10.73            0.00         10.73         0.00         0.00
    139.0       10.63            0.00         10.63         0.00         0.00
    126.0       10.51            0.00         10.51         0.00         0.00
    113.0       10.39            0.00         10.39         0.00         0.00
    100.0       10.25            0.00         10.25         0.00         0.00
     87.0       10.09            0.00         10.09         0.00         0.00
     74.0        9.91            0.00          9.91         0.00         0.00
     61.0        9.71            0.00          9.71         0.00         0.00
     48.0        9.45            0.00          9.45         0.00         0.00
     35.0        9.13            0.00          9.13         0.00         0.00


Harvested Random Seeds after Generation of the Random Numbers:

    108559305 K1
            0 K2


Hub-Height Simulated Turbulence Statistical Summary:

   Type of Wind        Min (m/s)   Mean (m/s)    Max (m/s)  Sigma (m/s)       TI (%)
   ----------------    ---------   ----------    ---------  -----------       ------
   Longitudinal (u)         4.49        10.25        15.73        1.824       17.800
   Lateral (v)             -5.41         0.00         4.88        1.460       14.242
   Vertical (w)            -3.40         0.00         3.02        0.921        8.985
   U component              4.49        10.25        15.73        1.824       17.800
   V component             -5.41         0.00         4.88        1.460       14.242
   W component             -3.40         0.00         3.02        0.921        8.985
   Horizontal (U&V)         4.55        10.35        15.74        1.813       17.506
   Total                    4.60        10.40        15.76        1.808       17.390

                       Min Reynolds     Mean Reynolds    Max Reynolds    Correlation
   Product             Stress (m/s)^2   Stress (m/s)^2   Stress (m/s)^2  Coefficient
   ----------------    --------------   --------------   --------------  -----------
   u'w'                    -10.387             0.026             9.276         0.015
   u'v'                    -15.053             0.219            14.018         0.082
   v'w'                     -7.425             0.075             7.719         0.056


   Friction Velocity (Ustar)  =      0.161 m/s
   Maximum Instantaneous TKE  =     18.341 (m/s)^2
   Maximum Instantaneous CTKE =      8.835 (m/s)^2


Grid Point Variance Summary:

   Y-coord  -65.00  -52.00  -39.00  -26.00  -13.00    0.00   13.00   26.00   39.00   52.00   65.00

   Height   Standard deviation at grid points for the u component:
   165.00    1.738   1.827   1.903   1.856   1.810   1.857   1.850   1.903   2.000   1.711   1.677
   152.00    1.758   1.844   1.811   1.848   1.712   1.891   2.022   1.866   1.899   1.830   1.857
   139.00    1.631   1.775   1.832   1.724   1.743   1.804   1.807   1.782   1.807   1.648   1.690
   126.00    1.654   1.729   1.739   1.666   1.687   1.733   1.753   1.713   1.643   1.741   1.741
   113.00    1.653   1.735   1.697   1.751   1.713   1.641   1.622   1.513   1.634   1.676   1.691
   100.00    1.539   1.747   1.825   1.638   1.673   1.824   1.784   1.512   1.592   1.665   1.631
    87.00    1.543   1.589   1.689   1.720   1.701   1.616   1.762   1.549   1.546   1.643   1.573
    74.00    1.477   1.463   1.475   1.528   1.572   1.645   1.696   1.551   1.575   1.693   1.744
    61.00    1.499   1.359   1.498   1.591   1.512   1.659   1.692   1.540   1.523   1.518   1.769
    48.00    1.618   1.388   1.481   1.531   1.508   1.615   1.460   1.599   1.482   1.716   1.726
    35.00    1.768   1.498   1.533   1.422   1.565   1.615   1.514   1.526   1.699   1.735   1.751

   Height   Standard deviation at grid points for the v component:
   165.00    1.460   1.460   1.460   1.460   1.460   1.460   1.460   1.460   1.460   1.460   1.460
   152.00    1.460   1.460   1.460   1.460   1.460   1.460   1.460   1.460   1.460   1.460   1.460
   139.00    1.460   1.460   1.460   1.460   1.460   1.460   1.460   1.460   1.460   1.460   1.460
   126.00    1.460   1.460   1.460   1.460   1.460   1.460   1.460   1.460   1.460   1.460   1.460
   113.00    1.460   1.460   1.460   1.460   1.460   1.460   1.460   1.460   1.460   1.460   1.460
   100.00    1.460   1.460   1.460   1.460   1.460   1.460   1.460   1.460   1.460   1.460   1.460
    87.00    1.460   1.460   1.460   1.460   1.460   1.460   1.460   1.460   1.460   1.460   1.460
    74.00    1.460   1.460   1.460   1.460   1.460   1.460   1.460   1.460   1.460   1.460   1.460
    61.00    1.460   1.460   1.460   1.460   1.460   1.460   1.460   1.460   1.460   1.460   1.460
    48.00    1.460   1.460   1.460   1.460   1.460   1.460   1.460   1.460   1.460   1.460   1.460
    35.00    1.460   1.460   1.460   1.460   1.460   1.460   1.460   1.460   1.460   1.460   1.460

   Height   Standard deviation at grid points for the w component:
   165.00    0.921   0.921   0.921   0.921   0.921   0.921   0.921   0.921   0.921   0.921   0.921
   152.00    0.921   0.921   0.921   0.921   0.921   0.921   0.921   0.921   0.921   0.921   0.921
   139.00    0.921   0.921   0.921   0.921   0.921   0.921   0.921   0.921   0.921   0.921   0.921
   126.00    0.921   0.921   0.921   0.921   0.921   0.921   0.921   0.921   0.921   0.921   0.921
   113.00    0.921   0.921   0.921   0.921   0.921   0.921   0.921   0.921   0.921   0.921   0.921
   100.00    0.921   0.921   0.921   0.921   0.921   0.921   0.921   0.921   0.921   0.921   0.921
    87.00    0.921   0.921   0.921   0.921   0.921   0.921   0.921   0.921   0.921   0.921   0.921
    74.00    0.921   0.921   0.921   0.921   0.921   0.921   0.921   0.921   0.921   0.921   0.921
    61.00    0.921   0.921   0.921   0.921   0.921   0.921   0.921   0.921   0.921   0.921   0.921
    48.00    0.921   0.921   0.921   0.921   0.921   0.921   0.921   0.921   0.921   0.921   0.921
    35.00    0.921   0.921   0.921   0.921   0.921   0.921   0.921   0.921   0.921   0.921   0.921

   Mean standard deviation across all grid points:
      u component:    1.674 m/s
      v component:    1.460 m/s
      w component:    0.921 m/s


U-component (X) statistics from the hub grid point:

   Mean =  10.2485 m/s
   TI   =  17.7996 %


Normalizing Parameters for Binary Data (approximate statistics):

   UBar  =  10.2485 m/s
   TI(u) =  17.7996 %
   TI(v) =  14.2422 %
   TI(w) =   8.9845 %

   Height Offset =   0.0000 m
   Grid Base     =  35.0000 m

Nyquist frequency of turbulent wind field =        50.000 Hz


Processing complete.  7.2188 CPU seconds used.
