
This summary file was generated by TurbSim (v1.06.00, 21-Sep-2012) on 13-Jul-2016 at 14:07:42.


Runtime Options:

   2318573  Random seed #1
    RANLUX  Type of random number generator
         F  Output binary HH turbulence parameters?
         F  Output formatted turbulence parameters?
         F  Output AeroDyn HH files?
         F  Output AeroDyn FF files?
         T  Output BLADED FF files?
         F  Output tower data?
         F  Output formatted FF files?
         F  Output coherent turbulence time step file?
         T  Clockwise rotation when looking downwind?
 0 -  NONE  IEC turbulence models scaled to exact specified standard deviation


Turbine/Model Specifications:

        11  Vertical grid-point matrix dimension
        11  Horizontal grid-point matrix dimension
     0.010  Time step [seconds]
   630.000  Analysis time [seconds]
   630.000  Usable output time [seconds]
   100.000  Hub height [m]
   130.000  Grid height [m]
   130.000  Grid width [m]
     0.000  Vertical flow angle [degrees]
     0.000  Horizontal flow angle [degrees]


Meteorological Boundary Conditions:

    IECKAI  IEC Kaimal spectral model
         1  IEC standard: IEC 61400-1 Ed. 3: 2005
     0.159  Percent turbulence intensity, IEC 61400-1 Ed. 3: 2005
       NTM  IEC Normal Turbulence Model
       N/A  IEC Extreme Turbulence Model (ETM) "c" parameter [m/s]
       PL   Wind profile type
    80.000  Reference height [m]
     5.000  Reference wind speed [m/s]
       N/A  Jet height [m]
     0.110  Power law exponent
     0.030  Surface roughness length [m]


You have requested that the following file(s) be generated:

   TurbSim_ws_wake15.wnd (AeroDyn/BLADED full-field wnd file)


Turbulence Simulation Scaling Parameter Summary:

   Turbulence model used                            =  IEC Kaimal
   Turbulence characteristic                        =  User-specified
   IEC standard                                     =  IEC 61400-1 Ed. 3: 2005
   Mean wind speed at hub height                    =    5.124 m/s
   Characteristic value of standard deviation       =    0.008 m/s
   Turbulence scale                                 =   42.000 m
   u-component integral scale                       =  340.200 m
   Coherency scale                                  =  340.200 m
   Characteristic value of hub turbulence intensity =    0.159%
   Gradient Richardson number                       =    0.000

   Wind profile type                                =  Power law
   Power law exponent                               =    0.110
   Mean shear across rotor disk                     =    0.007 (m/s)/m
   Assumed rotor diameter                           =  130.000 m
   Surface roughness length                         =    0.030 m

   Number of time steps in the FFT                  =    65664
   Number of time steps output                      =    65537


Mean Flow Angles:

   Vertical   =   0.0 degrees
   Horizontal =   0.0 degrees

Mean Wind Speed Profile:

   Height    Wind Speed   Horizontal Angle  U-comp (X)   V-comp (Y)   W-comp (Z)
     (m)        (m/s)         (degrees)       (m/s)        (m/s)        (m/s)   
   ------    ----------   ----------------  ----------   ----------   ----------
    165.0        5.41            0.00          5.41         0.00         0.00
    152.0        5.37            0.00          5.37         0.00         0.00
    139.0        5.31            0.00          5.31         0.00         0.00
    126.0        5.26            0.00          5.26         0.00         0.00
    113.0        5.19            0.00          5.19         0.00         0.00
    100.0        5.12            0.00          5.12         0.00         0.00
     87.0        5.05            0.00          5.05         0.00         0.00
     74.0        4.96            0.00          4.96         0.00         0.00
     61.0        4.85            0.00          4.85         0.00         0.00
     48.0        4.73            0.00          4.73         0.00         0.00
     35.0        4.57            0.00          4.57         0.00         0.00


Harvested Random Seeds after Generation of the Random Numbers:

    110738232 K1
            0 K2


Hub-Height Simulated Turbulence Statistical Summary:

   Type of Wind        Min (m/s)   Mean (m/s)    Max (m/s)  Sigma (m/s)       TI (%)
   ----------------    ---------   ----------    ---------  -----------       ------
   Longitudinal (u)         5.10         5.12         5.15        0.008        0.154
   Lateral (v)             -0.02         0.00         0.02        0.006        0.123
   Vertical (w)            -0.01         0.00         0.02        0.004        0.079
   U component              5.10         5.12         5.15        0.008        0.154
   V component             -0.02         0.00         0.02        0.006        0.123
   W component             -0.01         0.00         0.02        0.004        0.079
   Horizontal (U&V)         5.10         5.12         5.15        0.008        0.154
   Total                    5.10         5.12         5.15        0.008        0.154

                       Min Reynolds     Mean Reynolds    Max Reynolds    Correlation
   Product             Stress (m/s)^2   Stress (m/s)^2   Stress (m/s)^2  Coefficient
   ----------------    --------------   --------------   --------------  -----------
   u'w'                      0.000             0.000             0.000         0.031
   u'v'                      0.000             0.000             0.000        -0.134
   v'w'                      0.000             0.000             0.000         0.066


   Friction Velocity (Ustar)  =      0.001 m/s
   Maximum Instantaneous TKE  =      0.000 (m/s)^2
   Maximum Instantaneous CTKE =      0.000 (m/s)^2


Grid Point Variance Summary:

   Y-coord  -65.00  -52.00  -39.00  -26.00  -13.00    0.00   13.00   26.00   39.00   52.00   65.00

   Height   Standard deviation at grid points for the u component:
   165.00    0.008   0.008   0.008   0.009   0.008   0.009   0.009   0.008   0.009   0.009   0.009
   152.00    0.008   0.008   0.008   0.008   0.007   0.008   0.008   0.008   0.008   0.008   0.009
   139.00    0.008   0.007   0.008   0.008   0.007   0.007   0.007   0.008   0.008   0.010   0.009
   126.00    0.008   0.009   0.008   0.008   0.008   0.008   0.007   0.008   0.008   0.008   0.009
   113.00    0.008   0.010   0.011   0.011   0.008   0.009   0.008   0.008   0.008   0.009   0.009
   100.00    0.008   0.010   0.011   0.011   0.010   0.008   0.007   0.007   0.008   0.008   0.008
    87.00    0.009   0.009   0.010   0.010   0.011   0.010   0.008   0.008   0.008   0.008   0.008
    74.00    0.008   0.009   0.010   0.011   0.011   0.010   0.009   0.008   0.008   0.008   0.008
    61.00    0.007   0.008   0.009   0.010   0.010   0.010   0.008   0.008   0.008   0.008   0.008
    48.00    0.009   0.008   0.008   0.009   0.010   0.010   0.009   0.008   0.007   0.008   0.008
    35.00    0.007   0.008   0.008   0.008   0.009   0.008   0.008   0.008   0.008   0.008   0.008

   Height   Standard deviation at grid points for the v component:
   165.00    0.006   0.006   0.006   0.006   0.006   0.006   0.006   0.006   0.006   0.006   0.006
   152.00    0.006   0.006   0.006   0.006   0.006   0.006   0.006   0.006   0.006   0.006   0.006
   139.00    0.006   0.006   0.006   0.006   0.006   0.006   0.006   0.006   0.006   0.006   0.006
   126.00    0.006   0.006   0.006   0.006   0.006   0.006   0.006   0.006   0.006   0.006   0.006
   113.00    0.006   0.006   0.006   0.006   0.006   0.006   0.006   0.006   0.006   0.006   0.006
   100.00    0.006   0.006   0.006   0.006   0.006   0.006   0.006   0.006   0.006   0.006   0.006
    87.00    0.006   0.006   0.006   0.006   0.006   0.006   0.006   0.006   0.006   0.006   0.006
    74.00    0.006   0.006   0.006   0.006   0.006   0.006   0.006   0.006   0.006   0.006   0.006
    61.00    0.006   0.006   0.006   0.006   0.006   0.006   0.006   0.006   0.006   0.006   0.006
    48.00    0.006   0.006   0.006   0.006   0.006   0.006   0.006   0.006   0.006   0.006   0.006
    35.00    0.006   0.006   0.006   0.006   0.006   0.006   0.006   0.006   0.006   0.006   0.006

   Height   Standard deviation at grid points for the w component:
   165.00    0.004   0.004   0.004   0.004   0.004   0.004   0.004   0.004   0.004   0.004   0.004
   152.00    0.004   0.004   0.004   0.004   0.004   0.004   0.004   0.004   0.004   0.004   0.004
   139.00    0.004   0.004   0.004   0.004   0.004   0.004   0.004   0.004   0.004   0.004   0.004
   126.00    0.004   0.004   0.004   0.004   0.004   0.004   0.004   0.004   0.004   0.004   0.004
   113.00    0.004   0.004   0.004   0.004   0.004   0.004   0.004   0.004   0.004   0.004   0.004
   100.00    0.004   0.004   0.004   0.004   0.004   0.004   0.004   0.004   0.004   0.004   0.004
    87.00    0.004   0.004   0.004   0.004   0.004   0.004   0.004   0.004   0.004   0.004   0.004
    74.00    0.004   0.004   0.004   0.004   0.004   0.004   0.004   0.004   0.004   0.004   0.004
    61.00    0.004   0.004   0.004   0.004   0.004   0.004   0.004   0.004   0.004   0.004   0.004
    48.00    0.004   0.004   0.004   0.004   0.004   0.004   0.004   0.004   0.004   0.004   0.004
    35.00    0.004   0.004   0.004   0.004   0.004   0.004   0.004   0.004   0.004   0.004   0.004

   Mean standard deviation across all grid points:
      u component:    0.008 m/s
      v component:    0.006 m/s
      w component:    0.004 m/s


U-component (X) statistics from the hub grid point:

   Mean =   5.1242 m/s
   TI   =   0.1542 %


Normalizing Parameters for Binary Data (approximate statistics):

   UBar  =   5.1242 m/s
   TI(u) =   0.5453 %
   TI(v) =   0.1952 %
   TI(w) =   0.1952 %

   Height Offset =   0.0000 m
   Grid Base     =  35.0000 m

Nyquist frequency of turbulent wind field =        50.000 Hz


Processing complete.  7.0625 CPU seconds used.
