
This summary file was generated by TurbSim (v1.06.00, 21-Sep-2012) on 13-Jul-2016 at 15:31:39.


Runtime Options:

   2318573  Random seed #1
    RANLUX  Type of random number generator
         F  Output binary HH turbulence parameters?
         F  Output formatted turbulence parameters?
         F  Output AeroDyn HH files?
         F  Output AeroDyn FF files?
         T  Output BLADED FF files?
         F  Output tower data?
         F  Output formatted FF files?
         F  Output coherent turbulence time step file?
         T  Clockwise rotation when looking downwind?
 0 -  NONE  IEC turbulence models scaled to exact specified standard deviation


Turbine/Model Specifications:

        11  Vertical grid-point matrix dimension
        11  Horizontal grid-point matrix dimension
     0.010  Time step [seconds]
   630.000  Analysis time [seconds]
   630.000  Usable output time [seconds]
   100.000  Hub height [m]
   130.000  Grid height [m]
   130.000  Grid width [m]
     0.000  Vertical flow angle [degrees]
     0.000  Horizontal flow angle [degrees]


Meteorological Boundary Conditions:

    IECKAI  IEC Kaimal spectral model
         1  IEC standard: IEC 61400-1 Ed. 3: 2005
    26.670  Percent turbulence intensity, IEC 61400-1 Ed. 3: 2005
       NTM  IEC Normal Turbulence Model
       N/A  IEC Extreme Turbulence Model (ETM) "c" parameter [m/s]
       PL   Wind profile type
    80.000  Reference height [m]
     5.000  Reference wind speed [m/s]
       N/A  Jet height [m]
     0.110  Power law exponent
     0.030  Surface roughness length [m]


You have requested that the following file(s) be generated:

   TurbSim_ws_wake5.wnd (AeroDyn/BLADED full-field wnd file)


Turbulence Simulation Scaling Parameter Summary:

   Turbulence model used                            =  IEC Kaimal
   Turbulence characteristic                        =  User-specified
   IEC standard                                     =  IEC 61400-1 Ed. 3: 2005
   Mean wind speed at hub height                    =    5.124 m/s
   Characteristic value of standard deviation       =    1.367 m/s
   Turbulence scale                                 =   42.000 m
   u-component integral scale                       =  340.200 m
   Coherency scale                                  =  340.200 m
   Characteristic value of hub turbulence intensity =   26.670%
   Gradient Richardson number                       =    0.000

   Wind profile type                                =  Power law
   Power law exponent                               =    0.110
   Mean shear across rotor disk                     =    0.007 (m/s)/m
   Assumed rotor diameter                           =  130.000 m
   Surface roughness length                         =    0.030 m

   Number of time steps in the FFT                  =    65664
   Number of time steps output                      =    65537


Mean Flow Angles:

   Vertical   =   0.0 degrees
   Horizontal =   0.0 degrees

Mean Wind Speed Profile:

   Height    Wind Speed   Horizontal Angle  U-comp (X)   V-comp (Y)   W-comp (Z)
     (m)        (m/s)         (degrees)       (m/s)        (m/s)        (m/s)   
   ------    ----------   ----------------  ----------   ----------   ----------
    165.0        5.41            0.00          5.41         0.00         0.00
    152.0        5.37            0.00          5.37         0.00         0.00
    139.0        5.31            0.00          5.31         0.00         0.00
    126.0        5.26            0.00          5.26         0.00         0.00
    113.0        5.19            0.00          5.19         0.00         0.00
    100.0        5.12            0.00          5.12         0.00         0.00
     87.0        5.05            0.00          5.05         0.00         0.00
     74.0        4.96            0.00          4.96         0.00         0.00
     61.0        4.85            0.00          4.85         0.00         0.00
     48.0        4.73            0.00          4.73         0.00         0.00
     35.0        4.57            0.00          4.57         0.00         0.00


Harvested Random Seeds after Generation of the Random Numbers:

    110738232 K1
            0 K2


Hub-Height Simulated Turbulence Statistical Summary:

   Type of Wind        Min (m/s)   Mean (m/s)    Max (m/s)  Sigma (m/s)       TI (%)
   ----------------    ---------   ----------    ---------  -----------       ------
   Longitudinal (u)         1.05         5.12         8.77        1.324       25.844
   Lateral (v)             -3.25         0.00         3.11        1.056       20.615
   Vertical (w)            -2.34         0.00         2.75        0.675       13.177
   U component              1.05         5.12         8.77        1.324       25.844
   V component             -3.25         0.00         3.11        1.056       20.615
   W component             -2.34         0.00         2.75        0.675       13.177
   Horizontal (U&V)         1.15         5.24         8.77        1.305       24.910
   Total                    1.21         5.28         8.80        1.300       24.621

                       Min Reynolds     Mean Reynolds    Max Reynolds    Correlation
   Product             Stress (m/s)^2   Stress (m/s)^2   Stress (m/s)^2  Coefficient
   ----------------    --------------   --------------   --------------  -----------
   u'w'                     -5.487             0.027             4.662         0.031
   u'v'                     -8.619            -0.187             6.693        -0.134
   v'w'                     -5.367             0.047             5.839         0.066


   Friction Velocity (Ustar)  =      0.166 m/s
   Maximum Instantaneous TKE  =     10.368 (m/s)^2
   Maximum Instantaneous CTKE =      5.507 (m/s)^2


Grid Point Variance Summary:

   Y-coord  -65.00  -52.00  -39.00  -26.00  -13.00    0.00   13.00   26.00   39.00   52.00   65.00

   Height   Standard deviation at grid points for the u component:
   165.00    1.370   1.318   1.327   1.440   1.408   1.427   1.443   1.320   1.504   1.509   1.445
   152.00    1.332   1.380   1.263   1.341   1.219   1.286   1.277   1.351   1.365   1.375   1.467
   139.00    1.265   1.213   1.344   1.344   1.193   1.251   1.194   1.258   1.401   1.596   1.449
   126.00    1.309   1.471   1.374   1.334   1.342   1.283   1.173   1.311   1.326   1.366   1.495
   113.00    1.384   1.607   1.769   1.792   1.419   1.476   1.281   1.344   1.362   1.567   1.528
   100.00    1.401   1.617   1.873   1.875   1.642   1.324   1.244   1.241   1.405   1.301   1.415
    87.00    1.496   1.515   1.681   1.641   1.871   1.613   1.345   1.294   1.302   1.373   1.347
    74.00    1.357   1.542   1.638   1.764   1.827   1.717   1.438   1.332   1.353   1.367   1.386
    61.00    1.240   1.293   1.488   1.713   1.740   1.663   1.338   1.304   1.301   1.338   1.278
    48.00    1.465   1.309   1.413   1.446   1.657   1.648   1.574   1.287   1.254   1.333   1.307
    35.00    1.244   1.275   1.292   1.357   1.436   1.334   1.367   1.290   1.382   1.333   1.392

   Height   Standard deviation at grid points for the v component:
   165.00    1.056   1.056   1.056   1.056   1.056   1.056   1.056   1.056   1.056   1.056   1.056
   152.00    1.056   1.056   1.056   1.056   1.056   1.056   1.056   1.056   1.056   1.056   1.056
   139.00    1.056   1.056   1.056   1.056   1.056   1.056   1.056   1.056   1.056   1.056   1.056
   126.00    1.056   1.056   1.056   1.056   1.056   1.056   1.056   1.056   1.056   1.056   1.056
   113.00    1.056   1.056   1.056   1.056   1.056   1.056   1.056   1.056   1.056   1.056   1.056
   100.00    1.056   1.056   1.056   1.056   1.056   1.056   1.056   1.056   1.056   1.056   1.056
    87.00    1.056   1.056   1.056   1.056   1.056   1.056   1.056   1.056   1.056   1.056   1.056
    74.00    1.056   1.056   1.056   1.056   1.056   1.056   1.056   1.056   1.056   1.056   1.056
    61.00    1.056   1.056   1.056   1.056   1.056   1.056   1.056   1.056   1.056   1.056   1.056
    48.00    1.056   1.056   1.056   1.056   1.056   1.056   1.056   1.056   1.056   1.056   1.056
    35.00    1.056   1.056   1.056   1.056   1.056   1.056   1.056   1.056   1.056   1.056   1.056

   Height   Standard deviation at grid points for the w component:
   165.00    0.675   0.675   0.675   0.675   0.675   0.675   0.675   0.675   0.675   0.675   0.675
   152.00    0.675   0.675   0.675   0.675   0.675   0.675   0.675   0.675   0.675   0.675   0.675
   139.00    0.675   0.675   0.675   0.675   0.675   0.675   0.675   0.675   0.675   0.675   0.675
   126.00    0.675   0.675   0.675   0.675   0.675   0.675   0.675   0.675   0.675   0.675   0.675
   113.00    0.675   0.675   0.675   0.675   0.675   0.675   0.675   0.675   0.675   0.675   0.675
   100.00    0.675   0.675   0.675   0.675   0.675   0.675   0.675   0.675   0.675   0.675   0.675
    87.00    0.675   0.675   0.675   0.675   0.675   0.675   0.675   0.675   0.675   0.675   0.675
    74.00    0.675   0.675   0.675   0.675   0.675   0.675   0.675   0.675   0.675   0.675   0.675
    61.00    0.675   0.675   0.675   0.675   0.675   0.675   0.675   0.675   0.675   0.675   0.675
    48.00    0.675   0.675   0.675   0.675   0.675   0.675   0.675   0.675   0.675   0.675   0.675
    35.00    0.675   0.675   0.675   0.675   0.675   0.675   0.675   0.675   0.675   0.675   0.675

   Mean standard deviation across all grid points:
      u component:    1.418 m/s
      v component:    1.056 m/s
      w component:    0.675 m/s


U-component (X) statistics from the hub grid point:

   Mean =   5.1242 m/s
   TI   =  25.8441 %


Normalizing Parameters for Binary Data (approximate statistics):

   UBar  =   5.1242 m/s
   TI(u) =  25.8441 %
   TI(v) =  20.6147 %
   TI(w) =  13.1775 %

   Height Offset =   0.0000 m
   Grid Base     =  35.0000 m

Nyquist frequency of turbulent wind field =        50.000 Hz


Processing complete.  7.2812 CPU seconds used.
