
This summary file was generated by TurbSim (v1.06.00, 21-Sep-2012) on 13-Jul-2016 at 15:30:57.


Runtime Options:

   2318573  Random seed #1
    RANLUX  Type of random number generator
         F  Output binary HH turbulence parameters?
         F  Output formatted turbulence parameters?
         F  Output AeroDyn HH files?
         F  Output AeroDyn FF files?
         T  Output BLADED FF files?
         F  Output tower data?
         F  Output formatted FF files?
         F  Output coherent turbulence time step file?
         T  Clockwise rotation when looking downwind?
 0 -  NONE  IEC turbulence models scaled to exact specified standard deviation


Turbine/Model Specifications:

        11  Vertical grid-point matrix dimension
        11  Horizontal grid-point matrix dimension
     0.010  Time step [seconds]
   630.000  Analysis time [seconds]
   630.000  Usable output time [seconds]
   100.000  Hub height [m]
   130.000  Grid height [m]
   130.000  Grid width [m]
     0.000  Vertical flow angle [degrees]
     0.000  Horizontal flow angle [degrees]


Meteorological Boundary Conditions:

    IECKAI  IEC Kaimal spectral model
         1  IEC standard: IEC 61400-1 Ed. 3: 2005
    13.490  Percent turbulence intensity, IEC 61400-1 Ed. 3: 2005
       NTM  IEC Normal Turbulence Model
       N/A  IEC Extreme Turbulence Model (ETM) "c" parameter [m/s]
       PL   Wind profile type
    80.000  Reference height [m]
    25.000  Reference wind speed [m/s]
       N/A  Jet height [m]
     0.110  Power law exponent
     0.030  Surface roughness length [m]


You have requested that the following file(s) be generated:

   TurbSim_ws_wake25_8.wnd (AeroDyn/BLADED full-field wnd file)


Turbulence Simulation Scaling Parameter Summary:

   Turbulence model used                            =  IEC Kaimal
   Turbulence characteristic                        =  User-specified
   IEC standard                                     =  IEC 61400-1 Ed. 3: 2005
   Mean wind speed at hub height                    =   25.621 m/s
   Characteristic value of standard deviation       =    3.456 m/s
   Turbulence scale                                 =   42.000 m
   u-component integral scale                       =  340.200 m
   Coherency scale                                  =  340.200 m
   Characteristic value of hub turbulence intensity =   13.490%
   Gradient Richardson number                       =    0.000

   Wind profile type                                =  Power law
   Power law exponent                               =    0.110
   Mean shear across rotor disk                     =    0.033 (m/s)/m
   Assumed rotor diameter                           =  130.000 m
   Surface roughness length                         =    0.030 m

   Number of time steps in the FFT                  =    63536
   Number of time steps output                      =    63508


Mean Flow Angles:

   Vertical   =   0.0 degrees
   Horizontal =   0.0 degrees

Mean Wind Speed Profile:

   Height    Wind Speed   Horizontal Angle  U-comp (X)   V-comp (Y)   W-comp (Z)
     (m)        (m/s)         (degrees)       (m/s)        (m/s)        (m/s)   
   ------    ----------   ----------------  ----------   ----------   ----------
    165.0       27.07            0.00         27.07         0.00         0.00
    152.0       26.83            0.00         26.83         0.00         0.00
    139.0       26.57            0.00         26.57         0.00         0.00
    126.0       26.28            0.00         26.28         0.00         0.00
    113.0       25.97            0.00         25.97         0.00         0.00
    100.0       25.62            0.00         25.62         0.00         0.00
     87.0       25.23            0.00         25.23         0.00         0.00
     74.0       24.79            0.00         24.79         0.00         0.00
     61.0       24.27            0.00         24.27         0.00         0.00
     48.0       23.63            0.00         23.63         0.00         0.00
     35.0       22.83            0.00         22.83         0.00         0.00


Harvested Random Seeds after Generation of the Random Numbers:

    107149493 K1
            0 K2


Hub-Height Simulated Turbulence Statistical Summary:

   Type of Wind        Min (m/s)   Mean (m/s)    Max (m/s)  Sigma (m/s)       TI (%)
   ----------------    ---------   ----------    ---------  -----------       ------
   Longitudinal (u)        14.33        25.62        37.26        3.176       12.398
   Lateral (v)             -9.69         0.00         9.55        2.734       10.672
   Vertical (w)            -6.35         0.00         6.34        1.707        6.662
   U component             14.33        25.62        37.26        3.176       12.398
   V component             -9.69         0.00         9.55        2.734       10.672
   W component             -6.35         0.00         6.34        1.707        6.662
   Horizontal (U&V)        14.36        25.77        37.26        3.159       12.260
   Total                   14.37        25.83        37.26        3.152       12.204

                       Min Reynolds     Mean Reynolds    Max Reynolds    Correlation
   Product             Stress (m/s)^2   Stress (m/s)^2   Stress (m/s)^2  Coefficient
   ----------------    --------------   --------------   --------------  -----------
   u'w'                    -43.941            -0.364            36.194        -0.067
   u'v'                    -71.007            -0.391            51.962        -0.045
   v'w'                    -37.072            -0.370            34.760        -0.079


   Friction Velocity (Ustar)  =      0.604 m/s
   Maximum Instantaneous TKE  =     76.567 (m/s)^2
   Maximum Instantaneous CTKE =     38.028 (m/s)^2


Grid Point Variance Summary:

   Y-coord  -65.00  -52.00  -39.00  -26.00  -13.00    0.00   13.00   26.00   39.00   52.00   65.00

   Height   Standard deviation at grid points for the u component:
   165.00    3.176   3.223   3.363   3.595   3.354   3.203   3.346   3.492   3.267   3.305   3.331
   152.00    3.352   3.192   3.207   3.490   3.367   3.217   3.141   3.229   3.122   3.201   3.187
   139.00    3.256   3.203   3.217   3.446   3.442   3.369   3.387   3.033   3.101   3.120   3.284
   126.00    3.225   3.266   3.249   3.406   3.457   3.196   3.282   3.464   3.415   3.313   3.223
   113.00    3.304   3.426   3.268   3.234   3.095   3.044   3.322   3.204   3.212   3.163   3.267
   100.00    3.305   3.282   3.157   3.248   3.209   3.176   3.264   3.186   3.097   3.294   3.257
    87.00    3.297   3.215   3.035   3.174   3.143   3.248   3.440   3.336   3.165   3.295   3.273
    74.00    3.346   3.316   3.289   3.155   3.289   3.294   3.333   3.161   3.247   3.215   3.228
    61.00    3.363   3.221   3.421   3.515   3.237   3.168   3.302   3.173   3.383   3.323   3.535
    48.00    3.410   3.085   3.385   3.182   3.209   3.243   3.207   3.321   3.432   3.301   3.401
    35.00    3.379   3.433   3.408   3.242   3.158   3.399   3.333   3.400   3.439   3.342   3.225

   Height   Standard deviation at grid points for the v component:
   165.00    2.734   2.734   2.734   2.734   2.734   2.734   2.734   2.734   2.734   2.734   2.734
   152.00    2.734   2.734   2.734   2.734   2.734   2.734   2.734   2.734   2.734   2.734   2.734
   139.00    2.734   2.734   2.734   2.734   2.734   2.734   2.734   2.734   2.734   2.734   2.734
   126.00    2.734   2.734   2.734   2.734   2.734   2.734   2.734   2.734   2.734   2.734   2.734
   113.00    2.734   2.734   2.734   2.734   2.734   2.734   2.734   2.734   2.734   2.734   2.734
   100.00    2.734   2.734   2.734   2.734   2.734   2.734   2.734   2.734   2.734   2.734   2.734
    87.00    2.734   2.734   2.734   2.734   2.734   2.734   2.734   2.734   2.734   2.734   2.734
    74.00    2.734   2.734   2.734   2.734   2.734   2.734   2.734   2.734   2.734   2.734   2.734
    61.00    2.734   2.734   2.734   2.734   2.734   2.734   2.734   2.734   2.734   2.734   2.734
    48.00    2.734   2.734   2.734   2.734   2.734   2.734   2.734   2.734   2.734   2.734   2.734
    35.00    2.734   2.734   2.734   2.734   2.734   2.734   2.734   2.734   2.734   2.734   2.734

   Height   Standard deviation at grid points for the w component:
   165.00    1.707   1.707   1.707   1.707   1.707   1.707   1.707   1.707   1.707   1.707   1.707
   152.00    1.707   1.707   1.707   1.707   1.707   1.707   1.707   1.707   1.707   1.707   1.707
   139.00    1.707   1.707   1.707   1.707   1.707   1.707   1.707   1.707   1.707   1.707   1.707
   126.00    1.707   1.707   1.707   1.707   1.707   1.707   1.707   1.707   1.707   1.707   1.707
   113.00    1.707   1.707   1.707   1.707   1.707   1.707   1.707   1.707   1.707   1.707   1.707
   100.00    1.707   1.707   1.707   1.707   1.707   1.707   1.707   1.707   1.707   1.707   1.707
    87.00    1.707   1.707   1.707   1.707   1.707   1.707   1.707   1.707   1.707   1.707   1.707
    74.00    1.707   1.707   1.707   1.707   1.707   1.707   1.707   1.707   1.707   1.707   1.707
    61.00    1.707   1.707   1.707   1.707   1.707   1.707   1.707   1.707   1.707   1.707   1.707
    48.00    1.707   1.707   1.707   1.707   1.707   1.707   1.707   1.707   1.707   1.707   1.707
    35.00    1.707   1.707   1.707   1.707   1.707   1.707   1.707   1.707   1.707   1.707   1.707

   Mean standard deviation across all grid points:
      u component:    3.279 m/s
      v component:    2.734 m/s
      w component:    1.707 m/s


U-component (X) statistics from the hub grid point:

   Mean =  25.6212 m/s
   TI   =  12.3978 %


Normalizing Parameters for Binary Data (approximate statistics):

   UBar  =  25.6212 m/s
   TI(u) =  12.3978 %
   TI(v) =  10.6724 %
   TI(w) =   6.6618 %

   Height Offset =   0.0000 m
   Grid Base     =  35.0000 m

Nyquist frequency of turbulent wind field =        50.000 Hz


Processing complete.  6.7656 CPU seconds used.
