
This summary file was generated by TurbSim (v1.06.00, 21-Sep-2012) on 13-Jul-2016 at 15:30:47.


Runtime Options:

   2318573  Random seed #1
    RANLUX  Type of random number generator
         F  Output binary HH turbulence parameters?
         F  Output formatted turbulence parameters?
         F  Output AeroDyn HH files?
         F  Output AeroDyn FF files?
         T  Output BLADED FF files?
         F  Output tower data?
         F  Output formatted FF files?
         F  Output coherent turbulence time step file?
         T  Clockwise rotation when looking downwind?
 0 -  NONE  IEC turbulence models scaled to exact specified standard deviation


Turbine/Model Specifications:

        11  Vertical grid-point matrix dimension
        11  Horizontal grid-point matrix dimension
     0.010  Time step [seconds]
   630.000  Analysis time [seconds]
   630.000  Usable output time [seconds]
   100.000  Hub height [m]
   130.000  Grid height [m]
   130.000  Grid width [m]
     0.000  Vertical flow angle [degrees]
     0.000  Horizontal flow angle [degrees]


Meteorological Boundary Conditions:

    IECKAI  IEC Kaimal spectral model
         1  IEC standard: IEC 61400-1 Ed. 3: 2005
    15.620  Percent turbulence intensity, IEC 61400-1 Ed. 3: 2005
       NTM  IEC Normal Turbulence Model
       N/A  IEC Extreme Turbulence Model (ETM) "c" parameter [m/s]
       PL   Wind profile type
    80.000  Reference height [m]
    15.000  Reference wind speed [m/s]
       N/A  Jet height [m]
     0.110  Power law exponent
     0.030  Surface roughness length [m]


You have requested that the following file(s) be generated:

   TurbSim_ws_wake15_8.wnd (AeroDyn/BLADED full-field wnd file)


Turbulence Simulation Scaling Parameter Summary:

   Turbulence model used                            =  IEC Kaimal
   Turbulence characteristic                        =  User-specified
   IEC standard                                     =  IEC 61400-1 Ed. 3: 2005
   Mean wind speed at hub height                    =   15.373 m/s
   Characteristic value of standard deviation       =    2.401 m/s
   Turbulence scale                                 =   42.000 m
   u-component integral scale                       =  340.200 m
   Coherency scale                                  =  340.200 m
   Characteristic value of hub turbulence intensity =   15.620%
   Gradient Richardson number                       =    0.000

   Wind profile type                                =  Power law
   Power law exponent                               =    0.110
   Mean shear across rotor disk                     =    0.020 (m/s)/m
   Assumed rotor diameter                           =  130.000 m
   Surface roughness length                         =    0.030 m

   Number of time steps in the FFT                  =    63888
   Number of time steps output                      =    63846


Mean Flow Angles:

   Vertical   =   0.0 degrees
   Horizontal =   0.0 degrees

Mean Wind Speed Profile:

   Height    Wind Speed   Horizontal Angle  U-comp (X)   V-comp (Y)   W-comp (Z)
     (m)        (m/s)         (degrees)       (m/s)        (m/s)        (m/s)   
   ------    ----------   ----------------  ----------   ----------   ----------
    165.0       16.24            0.00         16.24         0.00         0.00
    152.0       16.10            0.00         16.10         0.00         0.00
    139.0       15.94            0.00         15.94         0.00         0.00
    126.0       15.77            0.00         15.77         0.00         0.00
    113.0       15.58            0.00         15.58         0.00         0.00
    100.0       15.37            0.00         15.37         0.00         0.00
     87.0       15.14            0.00         15.14         0.00         0.00
     74.0       14.87            0.00         14.87         0.00         0.00
     61.0       14.56            0.00         14.56         0.00         0.00
     48.0       14.18            0.00         14.18         0.00         0.00
     35.0       13.70            0.00         13.70         0.00         0.00


Harvested Random Seeds after Generation of the Random Numbers:

    107743119 K1
            0 K2


Hub-Height Simulated Turbulence Statistical Summary:

   Type of Wind        Min (m/s)   Mean (m/s)    Max (m/s)  Sigma (m/s)       TI (%)
   ----------------    ---------   ----------    ---------  -----------       ------
   Longitudinal (u)         8.93        15.37        23.58        2.210       14.374
   Lateral (v)             -6.75         0.00         7.75        1.893       12.316
   Vertical (w)            -4.77         0.00         4.57        1.188        7.729
   U component              8.93        15.37        23.58        2.210       14.374
   V component             -6.75         0.00         7.75        1.893       12.316
   W component             -4.77         0.00         4.57        1.188        7.729
   Horizontal (U&V)         8.94        15.49        23.60        2.183       14.091
   Total                    9.01        15.54        23.67        2.176       14.001

                       Min Reynolds     Mean Reynolds    Max Reynolds    Correlation
   Product             Stress (m/s)^2   Stress (m/s)^2   Stress (m/s)^2  Coefficient
   ----------------    --------------   --------------   --------------  -----------
   u'w'                    -16.942             0.192            23.696         0.073
   u'v'                    -29.032             0.374            25.563         0.089
   v'w'                    -15.256             0.015            15.069         0.007


   Friction Velocity (Ustar)  =      0.439 m/s
   Maximum Instantaneous TKE  =     36.635 (m/s)^2
   Maximum Instantaneous CTKE =     14.718 (m/s)^2


Grid Point Variance Summary:

   Y-coord  -65.00  -52.00  -39.00  -26.00  -13.00    0.00   13.00   26.00   39.00   52.00   65.00

   Height   Standard deviation at grid points for the u component:
   165.00    2.190   2.108   2.176   2.267   2.402   2.468   2.622   2.312   2.164   2.256   2.200
   152.00    2.408   2.315   2.101   2.299   2.382   2.412   2.399   2.331   2.272   2.199   2.234
   139.00    2.461   2.341   2.447   2.382   2.415   2.275   2.319   2.349   2.151   2.223   2.430
   126.00    2.361   2.433   2.398   2.432   2.476   2.313   2.358   2.272   2.195   2.181   2.615
   113.00    2.356   2.488   2.535   2.459   2.447   2.272   2.217   2.145   2.279   2.415   2.470
   100.00    2.674   2.654   2.633   2.496   2.433   2.210   2.177   2.222   2.315   2.376   2.381
    87.00    2.662   2.678   2.650   2.536   2.422   2.332   2.267   2.263   2.257   2.253   2.378
    74.00    2.746   2.635   2.562   2.577   2.479   2.426   2.485   2.446   2.099   2.210   2.274
    61.00    2.663   2.607   2.631   2.375   2.354   2.285   2.391   2.274   2.191   2.151   2.169
    48.00    2.513   2.557   2.487   2.427   2.342   2.138   2.300   2.117   2.088   2.114   2.148
    35.00    2.318   2.440   2.511   2.448   2.272   2.055   2.233   2.249   2.105   2.150   2.158

   Height   Standard deviation at grid points for the v component:
   165.00    1.893   1.893   1.893   1.893   1.893   1.893   1.893   1.893   1.893   1.893   1.893
   152.00    1.893   1.893   1.893   1.893   1.893   1.893   1.893   1.893   1.893   1.893   1.893
   139.00    1.893   1.893   1.893   1.893   1.893   1.893   1.893   1.893   1.893   1.893   1.893
   126.00    1.893   1.893   1.893   1.893   1.893   1.893   1.893   1.893   1.893   1.893   1.893
   113.00    1.893   1.893   1.893   1.893   1.893   1.893   1.893   1.893   1.893   1.893   1.893
   100.00    1.893   1.893   1.893   1.893   1.893   1.893   1.893   1.893   1.893   1.893   1.893
    87.00    1.893   1.893   1.893   1.893   1.893   1.893   1.893   1.893   1.893   1.893   1.893
    74.00    1.893   1.893   1.893   1.893   1.893   1.893   1.893   1.893   1.893   1.893   1.893
    61.00    1.893   1.893   1.893   1.893   1.893   1.893   1.893   1.893   1.893   1.893   1.893
    48.00    1.893   1.893   1.893   1.893   1.893   1.893   1.893   1.893   1.893   1.893   1.893
    35.00    1.893   1.893   1.893   1.893   1.893   1.893   1.893   1.893   1.893   1.893   1.893

   Height   Standard deviation at grid points for the w component:
   165.00    1.188   1.188   1.188   1.188   1.188   1.188   1.188   1.188   1.188   1.188   1.188
   152.00    1.188   1.188   1.188   1.188   1.188   1.188   1.188   1.188   1.188   1.188   1.188
   139.00    1.188   1.188   1.188   1.188   1.188   1.188   1.188   1.188   1.188   1.188   1.188
   126.00    1.188   1.188   1.188   1.188   1.188   1.188   1.188   1.188   1.188   1.188   1.188
   113.00    1.188   1.188   1.188   1.188   1.188   1.188   1.188   1.188   1.188   1.188   1.188
   100.00    1.188   1.188   1.188   1.188   1.188   1.188   1.188   1.188   1.188   1.188   1.188
    87.00    1.188   1.188   1.188   1.188   1.188   1.188   1.188   1.188   1.188   1.188   1.188
    74.00    1.188   1.188   1.188   1.188   1.188   1.188   1.188   1.188   1.188   1.188   1.188
    61.00    1.188   1.188   1.188   1.188   1.188   1.188   1.188   1.188   1.188   1.188   1.188
    48.00    1.188   1.188   1.188   1.188   1.188   1.188   1.188   1.188   1.188   1.188   1.188
    35.00    1.188   1.188   1.188   1.188   1.188   1.188   1.188   1.188   1.188   1.188   1.188

   Mean standard deviation across all grid points:
      u component:    2.355 m/s
      v component:    1.893 m/s
      w component:    1.188 m/s


U-component (X) statistics from the hub grid point:

   Mean =  15.3727 m/s
   TI   =  14.3744 %


Normalizing Parameters for Binary Data (approximate statistics):

   UBar  =  15.3727 m/s
   TI(u) =  14.3744 %
   TI(v) =  12.3164 %
   TI(w) =   7.7289 %

   Height Offset =   0.0000 m
   Grid Base     =  35.0000 m

Nyquist frequency of turbulent wind field =        50.000 Hz


Processing complete.  6.875 CPU seconds used.
