
This summary file was generated by TurbSim (v1.06.00, 21-Sep-2012) on 13-Jul-2016 at 15:30:34.


Runtime Options:

   2318573  Random seed #1
    RANLUX  Type of random number generator
         F  Output binary HH turbulence parameters?
         F  Output formatted turbulence parameters?
         F  Output AeroDyn HH files?
         F  Output AeroDyn FF files?
         T  Output BLADED FF files?
         F  Output tower data?
         F  Output formatted FF files?
         F  Output coherent turbulence time step file?
         T  Clockwise rotation when looking downwind?
 0 -  NONE  IEC turbulence models scaled to exact specified standard deviation


Turbine/Model Specifications:

        11  Vertical grid-point matrix dimension
        11  Horizontal grid-point matrix dimension
     0.010  Time step [seconds]
   630.000  Analysis time [seconds]
   630.000  Usable output time [seconds]
   100.000  Hub height [m]
   130.000  Grid height [m]
   130.000  Grid width [m]
     0.000  Vertical flow angle [degrees]
     0.000  Horizontal flow angle [degrees]


Meteorological Boundary Conditions:

    IECKAI  IEC Kaimal spectral model
         1  IEC standard: IEC 61400-1 Ed. 3: 2005
    26.210  Percent turbulence intensity, IEC 61400-1 Ed. 3: 2005
       NTM  IEC Normal Turbulence Model
       N/A  IEC Extreme Turbulence Model (ETM) "c" parameter [m/s]
       PL   Wind profile type
    80.000  Reference height [m]
     5.000  Reference wind speed [m/s]
       N/A  Jet height [m]
     0.110  Power law exponent
     0.030  Surface roughness length [m]


You have requested that the following file(s) be generated:

   TurbSim_ws_wake5 _8.wnd (AeroDyn/BLADED full-field wnd file)


Turbulence Simulation Scaling Parameter Summary:

   Turbulence model used                            =  IEC Kaimal
   Turbulence characteristic                        =  User-specified
   IEC standard                                     =  IEC 61400-1 Ed. 3: 2005
   Mean wind speed at hub height                    =    5.124 m/s
   Characteristic value of standard deviation       =    1.343 m/s
   Turbulence scale                                 =   42.000 m
   u-component integral scale                       =  340.200 m
   Coherency scale                                  =  340.200 m
   Characteristic value of hub turbulence intensity =   26.210%
   Gradient Richardson number                       =    0.000

   Wind profile type                                =  Power law
   Power law exponent                               =    0.110
   Mean shear across rotor disk                     =    0.007 (m/s)/m
   Assumed rotor diameter                           =  130.000 m
   Surface roughness length                         =    0.030 m

   Number of time steps in the FFT                  =    65664
   Number of time steps output                      =    65537


Mean Flow Angles:

   Vertical   =   0.0 degrees
   Horizontal =   0.0 degrees

Mean Wind Speed Profile:

   Height    Wind Speed   Horizontal Angle  U-comp (X)   V-comp (Y)   W-comp (Z)
     (m)        (m/s)         (degrees)       (m/s)        (m/s)        (m/s)   
   ------    ----------   ----------------  ----------   ----------   ----------
    165.0        5.41            0.00          5.41         0.00         0.00
    152.0        5.37            0.00          5.37         0.00         0.00
    139.0        5.31            0.00          5.31         0.00         0.00
    126.0        5.26            0.00          5.26         0.00         0.00
    113.0        5.19            0.00          5.19         0.00         0.00
    100.0        5.12            0.00          5.12         0.00         0.00
     87.0        5.05            0.00          5.05         0.00         0.00
     74.0        4.96            0.00          4.96         0.00         0.00
     61.0        4.85            0.00          4.85         0.00         0.00
     48.0        4.73            0.00          4.73         0.00         0.00
     35.0        4.57            0.00          4.57         0.00         0.00


Harvested Random Seeds after Generation of the Random Numbers:

    110738232 K1
            0 K2


Hub-Height Simulated Turbulence Statistical Summary:

   Type of Wind        Min (m/s)   Mean (m/s)    Max (m/s)  Sigma (m/s)       TI (%)
   ----------------    ---------   ----------    ---------  -----------       ------
   Longitudinal (u)         1.12         5.12         8.71        1.301       25.398
   Lateral (v)             -3.19         0.00         3.06        1.038       20.259
   Vertical (w)            -2.30         0.00         2.70        0.664       12.950
   U component              1.12         5.12         8.71        1.301       25.398
   V component             -3.19         0.00         3.06        1.038       20.259
   W component             -2.30         0.00         2.70        0.664       12.950
   Horizontal (U&V)         1.22         5.23         8.71        1.283       24.519
   Total                    1.27         5.28         8.73        1.279       24.247

                       Min Reynolds     Mean Reynolds    Max Reynolds    Correlation
   Product             Stress (m/s)^2   Stress (m/s)^2   Stress (m/s)^2  Coefficient
   ----------------    --------------   --------------   --------------  -----------
   u'w'                     -5.299             0.027             4.503         0.031
   u'v'                     -8.324            -0.181             6.464        -0.134
   v'w'                     -5.184             0.046             5.640         0.066


   Friction Velocity (Ustar)  =      0.163 m/s
   Maximum Instantaneous TKE  =     10.013 (m/s)^2
   Maximum Instantaneous CTKE =      5.318 (m/s)^2


Grid Point Variance Summary:

   Y-coord  -65.00  -52.00  -39.00  -26.00  -13.00    0.00   13.00   26.00   39.00   52.00   65.00

   Height   Standard deviation at grid points for the u component:
   165.00    1.346   1.295   1.304   1.415   1.384   1.403   1.418   1.297   1.478   1.483   1.420
   152.00    1.309   1.356   1.241   1.318   1.198   1.263   1.255   1.328   1.341   1.352   1.441
   139.00    1.243   1.192   1.321   1.320   1.172   1.229   1.173   1.236   1.377   1.569   1.424
   126.00    1.287   1.446   1.350   1.311   1.319   1.261   1.153   1.288   1.303   1.342   1.469
   113.00    1.360   1.579   1.738   1.761   1.394   1.450   1.259   1.321   1.338   1.540   1.502
   100.00    1.377   1.589   1.840   1.843   1.613   1.301   1.222   1.220   1.381   1.278   1.390
    87.00    1.471   1.489   1.652   1.612   1.838   1.585   1.322   1.272   1.280   1.350   1.324
    74.00    1.333   1.515   1.610   1.733   1.795   1.687   1.413   1.309   1.330   1.344   1.362
    61.00    1.218   1.271   1.462   1.683   1.710   1.634   1.315   1.281   1.278   1.315   1.256
    48.00    1.440   1.287   1.388   1.421   1.628   1.620   1.547   1.264   1.232   1.310   1.285
    35.00    1.223   1.253   1.270   1.334   1.411   1.311   1.343   1.268   1.359   1.310   1.368

   Height   Standard deviation at grid points for the v component:
   165.00    1.038   1.038   1.038   1.038   1.038   1.038   1.038   1.038   1.038   1.038   1.038
   152.00    1.038   1.038   1.038   1.038   1.038   1.038   1.038   1.038   1.038   1.038   1.038
   139.00    1.038   1.038   1.038   1.038   1.038   1.038   1.038   1.038   1.038   1.038   1.038
   126.00    1.038   1.038   1.038   1.038   1.038   1.038   1.038   1.038   1.038   1.038   1.038
   113.00    1.038   1.038   1.038   1.038   1.038   1.038   1.038   1.038   1.038   1.038   1.038
   100.00    1.038   1.038   1.038   1.038   1.038   1.038   1.038   1.038   1.038   1.038   1.038
    87.00    1.038   1.038   1.038   1.038   1.038   1.038   1.038   1.038   1.038   1.038   1.038
    74.00    1.038   1.038   1.038   1.038   1.038   1.038   1.038   1.038   1.038   1.038   1.038
    61.00    1.038   1.038   1.038   1.038   1.038   1.038   1.038   1.038   1.038   1.038   1.038
    48.00    1.038   1.038   1.038   1.038   1.038   1.038   1.038   1.038   1.038   1.038   1.038
    35.00    1.038   1.038   1.038   1.038   1.038   1.038   1.038   1.038   1.038   1.038   1.038

   Height   Standard deviation at grid points for the w component:
   165.00    0.664   0.664   0.664   0.664   0.664   0.664   0.664   0.664   0.664   0.664   0.664
   152.00    0.664   0.664   0.664   0.664   0.664   0.664   0.664   0.664   0.664   0.664   0.664
   139.00    0.664   0.664   0.664   0.664   0.664   0.664   0.664   0.664   0.664   0.664   0.664
   126.00    0.664   0.664   0.664   0.664   0.664   0.664   0.664   0.664   0.664   0.664   0.664
   113.00    0.664   0.664   0.664   0.664   0.664   0.664   0.664   0.664   0.664   0.664   0.664
   100.00    0.664   0.664   0.664   0.664   0.664   0.664   0.664   0.664   0.664   0.664   0.664
    87.00    0.664   0.664   0.664   0.664   0.664   0.664   0.664   0.664   0.664   0.664   0.664
    74.00    0.664   0.664   0.664   0.664   0.664   0.664   0.664   0.664   0.664   0.664   0.664
    61.00    0.664   0.664   0.664   0.664   0.664   0.664   0.664   0.664   0.664   0.664   0.664
    48.00    0.664   0.664   0.664   0.664   0.664   0.664   0.664   0.664   0.664   0.664   0.664
    35.00    0.664   0.664   0.664   0.664   0.664   0.664   0.664   0.664   0.664   0.664   0.664

   Mean standard deviation across all grid points:
      u component:    1.394 m/s
      v component:    1.038 m/s
      w component:    0.664 m/s


U-component (X) statistics from the hub grid point:

   Mean =   5.1242 m/s
   TI   =  25.3983 %


Normalizing Parameters for Binary Data (approximate statistics):

   UBar  =   5.1242 m/s
   TI(u) =  25.3983 %
   TI(v) =  20.2591 %
   TI(w) =  12.9502 %

   Height Offset =   0.0000 m
   Grid Base     =  35.0000 m

Nyquist frequency of turbulent wind field =        50.000 Hz


Processing complete.  7.0312 CPU seconds used.
