
This summary file was generated by TurbSim (v1.06.00, 21-Sep-2012) on 12-Jul-2016 at 16:12:21.


Runtime Options:

   2318573  Random seed #1
    RANLUX  Type of random number generator
         F  Output binary HH turbulence parameters?
         F  Output formatted turbulence parameters?
         F  Output AeroDyn HH files?
         F  Output AeroDyn FF files?
         T  Output BLADED FF files?
         F  Output tower data?
         F  Output formatted FF files?
         F  Output coherent turbulence time step file?
         T  Clockwise rotation when looking downwind?
 0 -  NONE  IEC turbulence models scaled to exact specified standard deviation


Turbine/Model Specifications:

        11  Vertical grid-point matrix dimension
        11  Horizontal grid-point matrix dimension
     0.010  Time step [seconds]
   630.000  Analysis time [seconds]
   630.000  Usable output time [seconds]
   100.000  Hub height [m]
   130.000  Grid height [m]
   130.000  Grid width [m]
     0.000  Vertical flow angle [degrees]
     0.000  Horizontal flow angle [degrees]


Meteorological Boundary Conditions:

    IECKAI  IEC Kaimal spectral model
         1  IEC standard: IEC 61400-1 Ed. 3: 2005
         B  IEC turbulence characteristic
       NTM  IEC Normal Turbulence Model
       N/A  IEC Extreme Turbulence Model (ETM) "c" parameter [m/s]
       PL   Wind profile type
    80.000  Reference height [m]
    25.000  Reference wind speed [m/s]
       N/A  Jet height [m]
     0.110  Power law exponent
     0.030  Surface roughness length [m]


You have requested that the following file(s) be generated:

   TurbSim_ws_20.wnd (AeroDyn/BLADED full-field wnd file)


Turbulence Simulation Scaling Parameter Summary:

   Turbulence model used                            =  IEC Kaimal
   Turbulence characteristic                        =  B
   IEC turbulence type                              =  Normal Turbulence Model
   IEC standard                                     =  IEC 61400-1 Ed. 3: 2005
   Mean wind speed at hub height                    =   25.621 m/s
   Expected value of turbulence intensity at 15 m/s =   14.000%
   Characteristic value of standard deviation       =    3.474 m/s
   Turbulence scale                                 =   42.000 m
   u-component integral scale                       =  340.200 m
   Coherency scale                                  =  340.200 m
   Characteristic value of hub turbulence intensity =   13.560%
   Gradient Richardson number                       =    0.000

   Wind profile type                                =  Power law
   Power law exponent                               =    0.110
   Mean shear across rotor disk                     =    0.033 (m/s)/m
   Assumed rotor diameter                           =  130.000 m
   Surface roughness length                         =    0.030 m

   Number of time steps in the FFT                  =    63536
   Number of time steps output                      =    63508


Mean Flow Angles:

   Vertical   =   0.0 degrees
   Horizontal =   0.0 degrees

Mean Wind Speed Profile:

   Height    Wind Speed   Horizontal Angle  U-comp (X)   V-comp (Y)   W-comp (Z)
     (m)        (m/s)         (degrees)       (m/s)        (m/s)        (m/s)   
   ------    ----------   ----------------  ----------   ----------   ----------
    165.0       27.07            0.00         27.07         0.00         0.00
    152.0       26.83            0.00         26.83         0.00         0.00
    139.0       26.57            0.00         26.57         0.00         0.00
    126.0       26.28            0.00         26.28         0.00         0.00
    113.0       25.97            0.00         25.97         0.00         0.00
    100.0       25.62            0.00         25.62         0.00         0.00
     87.0       25.23            0.00         25.23         0.00         0.00
     74.0       24.79            0.00         24.79         0.00         0.00
     61.0       24.27            0.00         24.27         0.00         0.00
     48.0       23.63            0.00         23.63         0.00         0.00
     35.0       22.83            0.00         22.83         0.00         0.00


Harvested Random Seeds after Generation of the Random Numbers:

    107149493 K1
            0 K2


Hub-Height Simulated Turbulence Statistical Summary:

   Type of Wind        Min (m/s)   Mean (m/s)    Max (m/s)  Sigma (m/s)       TI (%)
   ----------------    ---------   ----------    ---------  -----------       ------
   Longitudinal (u)        14.27        25.62        37.32        3.193       12.462
   Lateral (v)             -9.74         0.00         9.60        2.749       10.728
   Vertical (w)            -6.38         0.00         6.37        1.716        6.696
   U component             14.27        25.62        37.32        3.193       12.462
   V component             -9.74         0.00         9.60        2.749       10.728
   W component             -6.38         0.00         6.37        1.716        6.696
   Horizontal (U&V)        14.31        25.77        37.32        3.175       12.322
   Total                   14.31        25.83        37.32        3.168       12.265

                       Min Reynolds     Mean Reynolds    Max Reynolds    Correlation
   Product             Stress (m/s)^2   Stress (m/s)^2   Stress (m/s)^2  Coefficient
   ----------------    --------------   --------------   --------------  -----------
   u'w'                    -44.398            -0.368            36.570        -0.067
   u'v'                    -71.745            -0.395            52.502        -0.045
   v'w'                    -37.457            -0.373            35.121        -0.079


   Friction Velocity (Ustar)  =      0.607 m/s
   Maximum Instantaneous TKE  =     77.363 (m/s)^2
   Maximum Instantaneous CTKE =     38.423 (m/s)^2


Grid Point Variance Summary:

   Y-coord  -65.00  -52.00  -39.00  -26.00  -13.00    0.00   13.00   26.00   39.00   52.00   65.00

   Height   Standard deviation at grid points for the u component:
   165.00    3.192   3.240   3.380   3.614   3.371   3.219   3.363   3.511   3.284   3.322   3.348
   152.00    3.370   3.209   3.224   3.508   3.385   3.234   3.157   3.246   3.138   3.218   3.203
   139.00    3.273   3.220   3.234   3.464   3.460   3.386   3.405   3.049   3.117   3.137   3.301
   126.00    3.242   3.283   3.266   3.424   3.474   3.212   3.299   3.482   3.433   3.330   3.240
   113.00    3.322   3.444   3.285   3.251   3.111   3.060   3.340   3.220   3.229   3.179   3.284
   100.00    3.323   3.299   3.173   3.265   3.226   3.193   3.281   3.202   3.113   3.312   3.274
    87.00    3.314   3.232   3.050   3.191   3.159   3.265   3.458   3.354   3.182   3.312   3.290
    74.00    3.364   3.333   3.306   3.171   3.306   3.311   3.351   3.177   3.264   3.232   3.245
    61.00    3.381   3.238   3.439   3.533   3.254   3.185   3.319   3.189   3.400   3.340   3.553
    48.00    3.428   3.101   3.403   3.199   3.225   3.259   3.223   3.339   3.449   3.319   3.419
    35.00    3.396   3.451   3.426   3.259   3.175   3.417   3.350   3.417   3.457   3.359   3.241

   Height   Standard deviation at grid points for the v component:
   165.00    2.749   2.749   2.749   2.749   2.749   2.749   2.749   2.749   2.749   2.749   2.749
   152.00    2.749   2.749   2.749   2.749   2.749   2.749   2.749   2.749   2.749   2.749   2.749
   139.00    2.749   2.749   2.749   2.749   2.749   2.749   2.749   2.749   2.749   2.749   2.749
   126.00    2.749   2.749   2.749   2.749   2.749   2.749   2.749   2.749   2.749   2.749   2.749
   113.00    2.749   2.749   2.749   2.749   2.749   2.749   2.749   2.749   2.749   2.749   2.749
   100.00    2.749   2.749   2.749   2.749   2.749   2.749   2.749   2.749   2.749   2.749   2.749
    87.00    2.749   2.749   2.749   2.749   2.749   2.749   2.749   2.749   2.749   2.749   2.749
    74.00    2.749   2.749   2.749   2.749   2.749   2.749   2.749   2.749   2.749   2.749   2.749
    61.00    2.749   2.749   2.749   2.749   2.749   2.749   2.749   2.749   2.749   2.749   2.749
    48.00    2.749   2.749   2.749   2.749   2.749   2.749   2.749   2.749   2.749   2.749   2.749
    35.00    2.749   2.749   2.749   2.749   2.749   2.749   2.749   2.749   2.749   2.749   2.749

   Height   Standard deviation at grid points for the w component:
   165.00    1.716   1.716   1.716   1.716   1.716   1.716   1.716   1.716   1.716   1.716   1.716
   152.00    1.716   1.716   1.716   1.716   1.716   1.716   1.716   1.716   1.716   1.716   1.716
   139.00    1.716   1.716   1.716   1.716   1.716   1.716   1.716   1.716   1.716   1.716   1.716
   126.00    1.716   1.716   1.716   1.716   1.716   1.716   1.716   1.716   1.716   1.716   1.716
   113.00    1.716   1.716   1.716   1.716   1.716   1.716   1.716   1.716   1.716   1.716   1.716
   100.00    1.716   1.716   1.716   1.716   1.716   1.716   1.716   1.716   1.716   1.716   1.716
    87.00    1.716   1.716   1.716   1.716   1.716   1.716   1.716   1.716   1.716   1.716   1.716
    74.00    1.716   1.716   1.716   1.716   1.716   1.716   1.716   1.716   1.716   1.716   1.716
    61.00    1.716   1.716   1.716   1.716   1.716   1.716   1.716   1.716   1.716   1.716   1.716
    48.00    1.716   1.716   1.716   1.716   1.716   1.716   1.716   1.716   1.716   1.716   1.716
    35.00    1.716   1.716   1.716   1.716   1.716   1.716   1.716   1.716   1.716   1.716   1.716

   Mean standard deviation across all grid points:
      u component:    3.296 m/s
      v component:    2.749 m/s
      w component:    1.716 m/s


U-component (X) statistics from the hub grid point:

   Mean =  25.6212 m/s
   TI   =  12.4621 %


Normalizing Parameters for Binary Data (approximate statistics):

   UBar  =  25.6212 m/s
   TI(u) =  12.4621 %
   TI(v) =  10.7277 %
   TI(w) =   6.6963 %

   Height Offset =   0.0000 m
   Grid Base     =  35.0000 m

Nyquist frequency of turbulent wind field =        50.000 Hz


Processing complete.  6.9375 CPU seconds used.
