
This summary file was generated by TurbSim (v1.06.00, 21-Sep-2012) on 12-Jul-2016 at 16:12:15.

