
This summary file was generated by TurbSim (v1.06.00, 21-Sep-2012) on 12-Jul-2016 at 13:00:17.


Runtime Options:

   2318573  Random seed #1
    RANLUX  Type of random number generator
         F  Output binary HH turbulence parameters?
         F  Output formatted turbulence parameters?
         F  Output AeroDyn HH files?
         F  Output AeroDyn FF files?
         T  Output BLADED FF files?
         F  Output tower data?
         F  Output formatted FF files?
         F  Output coherent turbulence time step file?
         T  Clockwise rotation when looking downwind?
 0 -  NONE  IEC turbulence models scaled to exact specified standard deviation


Turbine/Model Specifications:

        11  Vertical grid-point matrix dimension
        11  Horizontal grid-point matrix dimension
     0.010  Time step [seconds]
   630.000  Analysis time [seconds]
   630.000  Usable output time [seconds]
   100.000  Hub height [m]
   130.000  Grid height [m]
   130.000  Grid width [m]
     0.000  Vertical flow angle [degrees]
     0.000  Horizontal flow angle [degrees]


Meteorological Boundary Conditions:

    IECKAI  IEC Kaimal spectral model
         1  IEC standard: IEC 61400-1 Ed. 3: 2005
         B  IEC turbulence characteristic
       NTM  IEC Normal Turbulence Model
       N/A  IEC Extreme Turbulence Model (ETM) "c" parameter [m/s]
       PL   Wind profile type
    80.000  Reference height [m]
     9.000  Reference wind speed [m/s]
       N/A  Jet height [m]
     0.110  Power law exponent
     0.030  Surface roughness length [m]


You have requested that the following file(s) be generated:

   TurbSim_test.wnd (AeroDyn/BLADED full-field wnd file)


Turbulence Simulation Scaling Parameter Summary:

   Turbulence model used                            =  IEC Kaimal
   Turbulence characteristic                        =  B
   IEC turbulence type                              =  Normal Turbulence Model
   IEC standard                                     =  IEC 61400-1 Ed. 3: 2005
   Mean wind speed at hub height                    =    9.224 m/s
   Expected value of turbulence intensity at 15 m/s =   14.000%
   Characteristic value of standard deviation       =    1.752 m/s
   Turbulence scale                                 =   42.000 m
   u-component integral scale                       =  340.200 m
   Coherency scale                                  =  340.200 m
   Characteristic value of hub turbulence intensity =   19.000%
   Gradient Richardson number                       =    0.000

   Wind profile type                                =  Power law
   Power law exponent                               =    0.110
   Mean shear across rotor disk                     =    0.012 (m/s)/m
   Assumed rotor diameter                           =  130.000 m
   Surface roughness length                         =    0.030 m

   Number of time steps in the FFT                  =    64512
   Number of time steps output                      =    64410


Mean Flow Angles:

   Vertical   =   0.0 degrees
   Horizontal =   0.0 degrees

Mean Wind Speed Profile:

   Height    Wind Speed   Horizontal Angle  U-comp (X)   V-comp (Y)   W-comp (Z)
     (m)        (m/s)         (degrees)       (m/s)        (m/s)        (m/s)   
   ------    ----------   ----------------  ----------   ----------   ----------
    165.0        9.75            0.00          9.75         0.00         0.00
    152.0        9.66            0.00          9.66         0.00         0.00
    139.0        9.56            0.00          9.56         0.00         0.00
    126.0        9.46            0.00          9.46         0.00         0.00
    113.0        9.35            0.00          9.35         0.00         0.00
    100.0        9.22            0.00          9.22         0.00         0.00
     87.0        9.08            0.00          9.08         0.00         0.00
     74.0        8.92            0.00          8.92         0.00         0.00
     61.0        8.74            0.00          8.74         0.00         0.00
     48.0        8.51            0.00          8.51         0.00         0.00
     35.0        8.22            0.00          8.22         0.00         0.00


Harvested Random Seeds after Generation of the Random Numbers:

    108795456 K1
            0 K2


Hub-Height Simulated Turbulence Statistical Summary:

   Type of Wind        Min (m/s)   Mean (m/s)    Max (m/s)  Sigma (m/s)       TI (%)
   ----------------    ---------   ----------    ---------  -----------       ------
   Longitudinal (u)         3.28         9.22        14.93        1.720       18.648
   Lateral (v)             -4.49         0.00         4.60        1.373       14.884
   Vertical (w)            -3.24         0.00         3.59        0.867        9.405
   U component              3.28         9.22        14.93        1.720       18.648
   V component             -4.49         0.00         4.60        1.373       14.884
   W component             -3.24         0.00         3.59        0.867        9.405
   Horizontal (U&V)         3.53         9.33        15.16        1.712       18.357
   Total                    3.65         9.37        15.16        1.706       18.214

                       Min Reynolds     Mean Reynolds    Max Reynolds    Correlation
   Product             Stress (m/s)^2   Stress (m/s)^2   Stress (m/s)^2  Coefficient
   ----------------    --------------   --------------   --------------  -----------
   u'w'                    -10.173            -0.224             7.500        -0.150
   u'v'                    -10.701             0.308            16.556         0.130
   v'w'                     -9.112            -0.021            11.572        -0.018


   Friction Velocity (Ustar)  =      0.473 m/s
   Maximum Instantaneous TKE  =     19.772 (m/s)^2
   Maximum Instantaneous CTKE =      8.612 (m/s)^2


Grid Point Variance Summary:

   Y-coord  -65.00  -52.00  -39.00  -26.00  -13.00    0.00   13.00   26.00   39.00   52.00   65.00

   Height   Standard deviation at grid points for the u component:
   165.00    1.727   1.622   1.837   1.805   1.799   1.614   1.501   1.587   1.556   1.692   1.799
   152.00    1.636   1.819   1.871   1.882   1.702   1.590   1.467   1.378   1.401   1.480   1.579
   139.00    1.640   1.889   1.835   1.946   1.919   1.665   1.455   1.441   1.393   1.341   1.592
   126.00    1.571   1.825   1.919   1.752   1.749   1.649   1.606   1.446   1.600   1.556   1.686
   113.00    1.620   1.709   1.859   1.734   1.574   1.631   1.640   1.717   1.881   1.786   1.666
   100.00    1.600   1.775   1.873   1.842   1.789   1.720   1.628   1.738   1.658   1.677   1.672
    87.00    1.742   1.641   1.606   1.719   1.590   1.684   1.555   1.608   1.571   1.569   1.535
    74.00    1.705   1.578   1.541   1.522   1.543   1.629   1.592   1.452   1.592   1.651   1.628
    61.00    1.485   1.451   1.591   1.662   1.472   1.626   1.756   1.547   1.481   1.719   1.658
    48.00    1.439   1.507   1.579   1.639   1.719   1.590   1.658   1.500   1.440   1.591   1.478
    35.00    1.657   1.547   1.516   1.688   1.748   1.807   1.613   1.565   1.563   1.524   1.432

   Height   Standard deviation at grid points for the v component:
   165.00    1.373   1.373   1.373   1.373   1.373   1.373   1.373   1.373   1.373   1.373   1.373
   152.00    1.373   1.373   1.373   1.373   1.373   1.373   1.373   1.373   1.373   1.373   1.373
   139.00    1.373   1.373   1.373   1.373   1.373   1.373   1.373   1.373   1.373   1.373   1.373
   126.00    1.373   1.373   1.373   1.373   1.373   1.373   1.373   1.373   1.373   1.373   1.373
   113.00    1.373   1.373   1.373   1.373   1.373   1.373   1.373   1.373   1.373   1.373   1.373
   100.00    1.373   1.373   1.373   1.373   1.373   1.373   1.373   1.373   1.373   1.373   1.373
    87.00    1.373   1.373   1.373   1.373   1.373   1.373   1.373   1.373   1.373   1.373   1.373
    74.00    1.373   1.373   1.373   1.373   1.373   1.373   1.373   1.373   1.373   1.373   1.373
    61.00    1.373   1.373   1.373   1.373   1.373   1.373   1.373   1.373   1.373   1.373   1.373
    48.00    1.373   1.373   1.373   1.373   1.373   1.373   1.373   1.373   1.373   1.373   1.373
    35.00    1.373   1.373   1.373   1.373   1.373   1.373   1.373   1.373   1.373   1.373   1.373

   Height   Standard deviation at grid points for the w component:
   165.00    0.867   0.867   0.867   0.867   0.867   0.867   0.867   0.867   0.867   0.867   0.867
   152.00    0.867   0.867   0.867   0.867   0.867   0.867   0.867   0.867   0.867   0.867   0.867
   139.00    0.867   0.867   0.867   0.867   0.867   0.867   0.867   0.867   0.867   0.867   0.867
   126.00    0.867   0.867   0.867   0.867   0.867   0.867   0.867   0.867   0.867   0.867   0.867
   113.00    0.867   0.867   0.867   0.867   0.867   0.867   0.867   0.867   0.867   0.867   0.867
   100.00    0.867   0.867   0.867   0.867   0.867   0.867   0.867   0.867   0.867   0.867   0.867
    87.00    0.867   0.867   0.867   0.867   0.867   0.867   0.867   0.867   0.867   0.867   0.867
    74.00    0.867   0.867   0.867   0.867   0.867   0.867   0.867   0.867   0.867   0.867   0.867
    61.00    0.867   0.867   0.867   0.867   0.867   0.867   0.867   0.867   0.867   0.867   0.867
    48.00    0.867   0.867   0.867   0.867   0.867   0.867   0.867   0.867   0.867   0.867   0.867
    35.00    0.867   0.867   0.867   0.867   0.867   0.867   0.867   0.867   0.867   0.867   0.867

   Mean standard deviation across all grid points:
      u component:    1.637 m/s
      v component:    1.373 m/s
      w component:    0.867 m/s


U-component (X) statistics from the hub grid point:

   Mean =   9.2236 m/s
   TI   =  18.6481 %


Normalizing Parameters for Binary Data (approximate statistics):

   UBar  =   9.2236 m/s
   TI(u) =  18.6481 %
   TI(v) =  14.8843 %
   TI(w) =   9.4047 %

   Height Offset =   0.0000 m
   Grid Base     =  35.0000 m

Nyquist frequency of turbulent wind field =        50.000 Hz


Processing complete.  9.8438 CPU seconds used.
