
This summary file was generated by TurbSim (v1.06.00, 21-Sep-2012) on 13-Jul-2016 at 15:31:18.


Runtime Options:

   2318573  Random seed #1
    RANLUX  Type of random number generator
         F  Output binary HH turbulence parameters?
         F  Output formatted turbulence parameters?
         F  Output AeroDyn HH files?
         F  Output AeroDyn FF files?
         T  Output BLADED FF files?
         F  Output tower data?
         F  Output formatted FF files?
         F  Output coherent turbulence time step file?
         T  Clockwise rotation when looking downwind?
 0 -  NONE  IEC turbulence models scaled to exact specified standard deviation


Turbine/Model Specifications:

        11  Vertical grid-point matrix dimension
        11  Horizontal grid-point matrix dimension
     0.010  Time step [seconds]
   630.000  Analysis time [seconds]
   630.000  Usable output time [seconds]
   100.000  Hub height [m]
   130.000  Grid height [m]
   130.000  Grid width [m]
     0.000  Vertical flow angle [degrees]
     0.000  Horizontal flow angle [degrees]


Meteorological Boundary Conditions:

    IECKAI  IEC Kaimal spectral model
         1  IEC standard: IEC 61400-1 Ed. 3: 2005
    15.940  Percent turbulence intensity, IEC 61400-1 Ed. 3: 2005
       NTM  IEC Normal Turbulence Model
       N/A  IEC Extreme Turbulence Model (ETM) "c" parameter [m/s]
       PL   Wind profile type
    80.000  Reference height [m]
    15.000  Reference wind speed [m/s]
       N/A  Jet height [m]
     0.110  Power law exponent
     0.030  Surface roughness length [m]


You have requested that the following file(s) be generated:

   TurbSim_ws_wake15.wnd (AeroDyn/BLADED full-field wnd file)


Turbulence Simulation Scaling Parameter Summary:

   Turbulence model used                            =  IEC Kaimal
   Turbulence characteristic                        =  User-specified
   IEC standard                                     =  IEC 61400-1 Ed. 3: 2005
   Mean wind speed at hub height                    =   15.373 m/s
   Characteristic value of standard deviation       =    2.450 m/s
   Turbulence scale                                 =   42.000 m
   u-component integral scale                       =  340.200 m
   Coherency scale                                  =  340.200 m
   Characteristic value of hub turbulence intensity =   15.940%
   Gradient Richardson number                       =    0.000

   Wind profile type                                =  Power law
   Power law exponent                               =    0.110
   Mean shear across rotor disk                     =    0.020 (m/s)/m
   Assumed rotor diameter                           =  130.000 m
   Surface roughness length                         =    0.030 m

   Number of time steps in the FFT                  =    63888
   Number of time steps output                      =    63846


Mean Flow Angles:

   Vertical   =   0.0 degrees
   Horizontal =   0.0 degrees

Mean Wind Speed Profile:

   Height    Wind Speed   Horizontal Angle  U-comp (X)   V-comp (Y)   W-comp (Z)
     (m)        (m/s)         (degrees)       (m/s)        (m/s)        (m/s)   
   ------    ----------   ----------------  ----------   ----------   ----------
    165.0       16.24            0.00         16.24         0.00         0.00
    152.0       16.10            0.00         16.10         0.00         0.00
    139.0       15.94            0.00         15.94         0.00         0.00
    126.0       15.77            0.00         15.77         0.00         0.00
    113.0       15.58            0.00         15.58         0.00         0.00
    100.0       15.37            0.00         15.37         0.00         0.00
     87.0       15.14            0.00         15.14         0.00         0.00
     74.0       14.87            0.00         14.87         0.00         0.00
     61.0       14.56            0.00         14.56         0.00         0.00
     48.0       14.18            0.00         14.18         0.00         0.00
     35.0       13.70            0.00         13.70         0.00         0.00


Harvested Random Seeds after Generation of the Random Numbers:

    107743119 K1
            0 K2


Hub-Height Simulated Turbulence Statistical Summary:

   Type of Wind        Min (m/s)   Mean (m/s)    Max (m/s)  Sigma (m/s)       TI (%)
   ----------------    ---------   ----------    ---------  -----------       ------
   Longitudinal (u)         8.80        15.37        23.75        2.255       14.669
   Lateral (v)             -6.89         0.00         7.91        1.932       12.569
   Vertical (w)            -4.87         0.00         4.67        1.212        7.887
   U component              8.80        15.37        23.75        2.255       14.669
   V component             -6.89         0.00         7.91        1.932       12.569
   W component             -4.87         0.00         4.67        1.212        7.887
   Horizontal (U&V)         8.81        15.50        23.77        2.227       14.370
   Total                    8.88        15.55        23.84        2.219       14.274

                       Min Reynolds     Mean Reynolds    Max Reynolds    Correlation
   Product             Stress (m/s)^2   Stress (m/s)^2   Stress (m/s)^2  Coefficient
   ----------------    --------------   --------------   --------------  -----------
   u'w'                    -17.643             0.200            24.677         0.073
   u'v'                    -30.233             0.389            26.621         0.089
   v'w'                    -15.888             0.016            15.693         0.007


   Friction Velocity (Ustar)  =      0.448 m/s
   Maximum Instantaneous TKE  =     38.151 (m/s)^2
   Maximum Instantaneous CTKE =     15.327 (m/s)^2


Grid Point Variance Summary:

   Y-coord  -65.00  -52.00  -39.00  -26.00  -13.00    0.00   13.00   26.00   39.00   52.00   65.00

   Height   Standard deviation at grid points for the u component:
   165.00    2.235   2.152   2.221   2.313   2.452   2.519   2.676   2.360   2.209   2.303   2.245
   152.00    2.457   2.362   2.145   2.346   2.431   2.462   2.448   2.379   2.319   2.244   2.279
   139.00    2.512   2.389   2.497   2.431   2.465   2.321   2.367   2.397   2.195   2.268   2.480
   126.00    2.410   2.483   2.447   2.482   2.527   2.360   2.406   2.319   2.240   2.225   2.669
   113.00    2.404   2.539   2.587   2.509   2.497   2.319   2.263   2.189   2.326   2.464   2.520
   100.00    2.728   2.708   2.687   2.547   2.483   2.255   2.221   2.267   2.362   2.425   2.430
    87.00    2.717   2.733   2.705   2.588   2.472   2.380   2.313   2.310   2.303   2.299   2.427
    74.00    2.802   2.689   2.615   2.630   2.530   2.476   2.536   2.496   2.142   2.255   2.320
    61.00    2.717   2.661   2.685   2.424   2.402   2.331   2.440   2.320   2.236   2.195   2.214
    48.00    2.564   2.609   2.538   2.476   2.390   2.182   2.347   2.160   2.131   2.158   2.192
    35.00    2.365   2.490   2.563   2.498   2.318   2.097   2.279   2.295   2.148   2.194   2.203

   Height   Standard deviation at grid points for the v component:
   165.00    1.932   1.932   1.932   1.932   1.932   1.932   1.932   1.932   1.932   1.932   1.932
   152.00    1.932   1.932   1.932   1.932   1.932   1.932   1.932   1.932   1.932   1.932   1.932
   139.00    1.932   1.932   1.932   1.932   1.932   1.932   1.932   1.932   1.932   1.932   1.932
   126.00    1.932   1.932   1.932   1.932   1.932   1.932   1.932   1.932   1.932   1.932   1.932
   113.00    1.932   1.932   1.932   1.932   1.932   1.932   1.932   1.932   1.932   1.932   1.932
   100.00    1.932   1.932   1.932   1.932   1.932   1.932   1.932   1.932   1.932   1.932   1.932
    87.00    1.932   1.932   1.932   1.932   1.932   1.932   1.932   1.932   1.932   1.932   1.932
    74.00    1.932   1.932   1.932   1.932   1.932   1.932   1.932   1.932   1.932   1.932   1.932
    61.00    1.932   1.932   1.932   1.932   1.932   1.932   1.932   1.932   1.932   1.932   1.932
    48.00    1.932   1.932   1.932   1.932   1.932   1.932   1.932   1.932   1.932   1.932   1.932
    35.00    1.932   1.932   1.932   1.932   1.932   1.932   1.932   1.932   1.932   1.932   1.932

   Height   Standard deviation at grid points for the w component:
   165.00    1.212   1.212   1.212   1.212   1.212   1.212   1.212   1.212   1.212   1.212   1.212
   152.00    1.212   1.212   1.212   1.212   1.212   1.212   1.212   1.212   1.212   1.212   1.212
   139.00    1.212   1.212   1.212   1.212   1.212   1.212   1.212   1.212   1.212   1.212   1.212
   126.00    1.212   1.212   1.212   1.212   1.212   1.212   1.212   1.212   1.212   1.212   1.212
   113.00    1.212   1.212   1.212   1.212   1.212   1.212   1.212   1.212   1.212   1.212   1.212
   100.00    1.212   1.212   1.212   1.212   1.212   1.212   1.212   1.212   1.212   1.212   1.212
    87.00    1.212   1.212   1.212   1.212   1.212   1.212   1.212   1.212   1.212   1.212   1.212
    74.00    1.212   1.212   1.212   1.212   1.212   1.212   1.212   1.212   1.212   1.212   1.212
    61.00    1.212   1.212   1.212   1.212   1.212   1.212   1.212   1.212   1.212   1.212   1.212
    48.00    1.212   1.212   1.212   1.212   1.212   1.212   1.212   1.212   1.212   1.212   1.212
    35.00    1.212   1.212   1.212   1.212   1.212   1.212   1.212   1.212   1.212   1.212   1.212

   Mean standard deviation across all grid points:
      u component:    2.403 m/s
      v component:    1.932 m/s
      w component:    1.212 m/s


U-component (X) statistics from the hub grid point:

   Mean =  15.3727 m/s
   TI   =  14.6688 %


Normalizing Parameters for Binary Data (approximate statistics):

   UBar  =  15.3727 m/s
   TI(u) =  14.6688 %
   TI(v) =  12.5687 %
   TI(w) =   7.8872 %

   Height Offset =   0.0000 m
   Grid Base     =  35.0000 m

Nyquist frequency of turbulent wind field =        50.000 Hz


Processing complete.  6.7031 CPU seconds used.
