
This summary file was generated by TurbSim (v1.06.00, 21-Sep-2012) on 12-Jul-2016 at 16:11:42.


Runtime Options:

   2318573  Random seed #1
    RANLUX  Type of random number generator
         F  Output binary HH turbulence parameters?
         F  Output formatted turbulence parameters?
         F  Output AeroDyn HH files?
         F  Output AeroDyn FF files?
         T  Output BLADED FF files?
         F  Output tower data?
         F  Output formatted FF files?
         F  Output coherent turbulence time step file?
         T  Clockwise rotation when looking downwind?
 0 -  NONE  IEC turbulence models scaled to exact specified standard deviation


Turbine/Model Specifications:

        11  Vertical grid-point matrix dimension
        11  Horizontal grid-point matrix dimension
     0.010  Time step [seconds]
   630.000  Analysis time [seconds]
   630.000  Usable output time [seconds]
   100.000  Hub height [m]
   130.000  Grid height [m]
   130.000  Grid width [m]
     0.000  Vertical flow angle [degrees]
     0.000  Horizontal flow angle [degrees]


Meteorological Boundary Conditions:

    IECKAI  IEC Kaimal spectral model
         1  IEC standard: IEC 61400-1 Ed. 3: 2005
         B  IEC turbulence characteristic
       NTM  IEC Normal Turbulence Model
       N/A  IEC Extreme Turbulence Model (ETM) "c" parameter [m/s]
       PL   Wind profile type
    80.000  Reference height [m]
     5.000  Reference wind speed [m/s]
       N/A  Jet height [m]
     0.110  Power law exponent
     0.030  Surface roughness length [m]


You have requested that the following file(s) be generated:

   TurbSim_ws_5.wnd (AeroDyn/BLADED full-field wnd file)


Turbulence Simulation Scaling Parameter Summary:

   Turbulence model used                            =  IEC Kaimal
   Turbulence characteristic                        =  B
   IEC turbulence type                              =  Normal Turbulence Model
   IEC standard                                     =  IEC 61400-1 Ed. 3: 2005
   Mean wind speed at hub height                    =    5.124 m/s
   Expected value of turbulence intensity at 15 m/s =   14.000%
   Characteristic value of standard deviation       =    1.322 m/s
   Turbulence scale                                 =   42.000 m
   u-component integral scale                       =  340.200 m
   Coherency scale                                  =  340.200 m
   Characteristic value of hub turbulence intensity =   25.800%
   Gradient Richardson number                       =    0.000

   Wind profile type                                =  Power law
   Power law exponent                               =    0.110
   Mean shear across rotor disk                     =    0.007 (m/s)/m
   Assumed rotor diameter                           =  130.000 m
   Surface roughness length                         =    0.030 m

   Number of time steps in the FFT                  =    65664
   Number of time steps output                      =    65537


Mean Flow Angles:

   Vertical   =   0.0 degrees
   Horizontal =   0.0 degrees

Mean Wind Speed Profile:

   Height    Wind Speed   Horizontal Angle  U-comp (X)   V-comp (Y)   W-comp (Z)
     (m)        (m/s)         (degrees)       (m/s)        (m/s)        (m/s)   
   ------    ----------   ----------------  ----------   ----------   ----------
    165.0        5.41            0.00          5.41         0.00         0.00
    152.0        5.37            0.00          5.37         0.00         0.00
    139.0        5.31            0.00          5.31         0.00         0.00
    126.0        5.26            0.00          5.26         0.00         0.00
    113.0        5.19            0.00          5.19         0.00         0.00
    100.0        5.12            0.00          5.12         0.00         0.00
     87.0        5.05            0.00          5.05         0.00         0.00
     74.0        4.96            0.00          4.96         0.00         0.00
     61.0        4.85            0.00          4.85         0.00         0.00
     48.0        4.73            0.00          4.73         0.00         0.00
     35.0        4.57            0.00          4.57         0.00         0.00


Harvested Random Seeds after Generation of the Random Numbers:

    110738232 K1
            0 K2


Hub-Height Simulated Turbulence Statistical Summary:

   Type of Wind        Min (m/s)   Mean (m/s)    Max (m/s)  Sigma (m/s)       TI (%)
   ----------------    ---------   ----------    ---------  -----------       ------
   Longitudinal (u)         1.19         5.12         8.65        1.281       25.001
   Lateral (v)             -3.14         0.00         3.01        1.022       19.942
   Vertical (w)            -2.26         0.00         2.66        0.653       12.747
   U component              1.19         5.12         8.65        1.281       25.001
   V component             -3.14         0.00         3.01        1.022       19.942
   W component             -2.26         0.00         2.66        0.653       12.747
   Horizontal (U&V)         1.28         5.23         8.66        1.264       24.168
   Total                    1.32         5.27         8.68        1.260       23.911

                       Min Reynolds     Mean Reynolds    Max Reynolds    Correlation
   Product             Stress (m/s)^2   Stress (m/s)^2   Stress (m/s)^2  Coefficient
   ----------------    --------------   --------------   --------------  -----------
   u'w'                     -5.135             0.026             4.363         0.031
   u'v'                     -8.066            -0.175             6.263        -0.134
   v'w'                     -5.023             0.044             5.465         0.066


   Friction Velocity (Ustar)  =      0.160 m/s
   Maximum Instantaneous TKE  =      9.702 (m/s)^2
   Maximum Instantaneous CTKE =      5.153 (m/s)^2


Grid Point Variance Summary:

   Y-coord  -65.00  -52.00  -39.00  -26.00  -13.00    0.00   13.00   26.00   39.00   52.00   65.00

   Height   Standard deviation at grid points for the u component:
   165.00    1.325   1.275   1.284   1.393   1.362   1.381   1.395   1.277   1.455   1.460   1.398
   152.00    1.289   1.335   1.222   1.298   1.179   1.244   1.235   1.307   1.320   1.331   1.419
   139.00    1.224   1.174   1.301   1.300   1.154   1.210   1.155   1.216   1.355   1.544   1.402
   126.00    1.267   1.423   1.329   1.290   1.298   1.241   1.135   1.268   1.283   1.321   1.446
   113.00    1.339   1.555   1.711   1.733   1.372   1.428   1.239   1.301   1.317   1.516   1.478
   100.00    1.355   1.564   1.812   1.814   1.588   1.281   1.203   1.200   1.359   1.258   1.368
    87.00    1.448   1.465   1.626   1.587   1.810   1.560   1.302   1.252   1.260   1.329   1.303
    74.00    1.313   1.491   1.584   1.706   1.767   1.661   1.391   1.288   1.309   1.323   1.341
    61.00    1.199   1.251   1.439   1.657   1.684   1.609   1.295   1.261   1.258   1.295   1.236
    48.00    1.417   1.267   1.367   1.399   1.603   1.594   1.522   1.245   1.213   1.290   1.265
    35.00    1.204   1.234   1.250   1.313   1.389   1.291   1.322   1.248   1.337   1.290   1.346

   Height   Standard deviation at grid points for the v component:
   165.00    1.022   1.022   1.022   1.022   1.022   1.022   1.022   1.022   1.022   1.022   1.022
   152.00    1.022   1.022   1.022   1.022   1.022   1.022   1.022   1.022   1.022   1.022   1.022
   139.00    1.022   1.022   1.022   1.022   1.022   1.022   1.022   1.022   1.022   1.022   1.022
   126.00    1.022   1.022   1.022   1.022   1.022   1.022   1.022   1.022   1.022   1.022   1.022
   113.00    1.022   1.022   1.022   1.022   1.022   1.022   1.022   1.022   1.022   1.022   1.022
   100.00    1.022   1.022   1.022   1.022   1.022   1.022   1.022   1.022   1.022   1.022   1.022
    87.00    1.022   1.022   1.022   1.022   1.022   1.022   1.022   1.022   1.022   1.022   1.022
    74.00    1.022   1.022   1.022   1.022   1.022   1.022   1.022   1.022   1.022   1.022   1.022
    61.00    1.022   1.022   1.022   1.022   1.022   1.022   1.022   1.022   1.022   1.022   1.022
    48.00    1.022   1.022   1.022   1.022   1.022   1.022   1.022   1.022   1.022   1.022   1.022
    35.00    1.022   1.022   1.022   1.022   1.022   1.022   1.022   1.022   1.022   1.022   1.022

   Height   Standard deviation at grid points for the w component:
   165.00    0.653   0.653   0.653   0.653   0.653   0.653   0.653   0.653   0.653   0.653   0.653
   152.00    0.653   0.653   0.653   0.653   0.653   0.653   0.653   0.653   0.653   0.653   0.653
   139.00    0.653   0.653   0.653   0.653   0.653   0.653   0.653   0.653   0.653   0.653   0.653
   126.00    0.653   0.653   0.653   0.653   0.653   0.653   0.653   0.653   0.653   0.653   0.653
   113.00    0.653   0.653   0.653   0.653   0.653   0.653   0.653   0.653   0.653   0.653   0.653
   100.00    0.653   0.653   0.653   0.653   0.653   0.653   0.653   0.653   0.653   0.653   0.653
    87.00    0.653   0.653   0.653   0.653   0.653   0.653   0.653   0.653   0.653   0.653   0.653
    74.00    0.653   0.653   0.653   0.653   0.653   0.653   0.653   0.653   0.653   0.653   0.653
    61.00    0.653   0.653   0.653   0.653   0.653   0.653   0.653   0.653   0.653   0.653   0.653
    48.00    0.653   0.653   0.653   0.653   0.653   0.653   0.653   0.653   0.653   0.653   0.653
    35.00    0.653   0.653   0.653   0.653   0.653   0.653   0.653   0.653   0.653   0.653   0.653

   Mean standard deviation across all grid points:
      u component:    1.372 m/s
      v component:    1.022 m/s
      w component:    0.653 m/s


U-component (X) statistics from the hub grid point:

   Mean =   5.1242 m/s
   TI   =  25.0008 %


Normalizing Parameters for Binary Data (approximate statistics):

   UBar  =   5.1242 m/s
   TI(u) =  25.0008 %
   TI(v) =  19.9421 %
   TI(w) =  12.7475 %

   Height Offset =   0.0000 m
   Grid Base     =  35.0000 m

Nyquist frequency of turbulent wind field =        50.000 Hz


Processing complete.  7.875 CPU seconds used.
