
This summary file was generated by TurbSim (v1.06.00, 21-Sep-2012) on 12-Jul-2016 at 16:12:05.


Runtime Options:

   2318573  Random seed #1
    RANLUX  Type of random number generator
         F  Output binary HH turbulence parameters?
         F  Output formatted turbulence parameters?
         F  Output AeroDyn HH files?
         F  Output AeroDyn FF files?
         T  Output BLADED FF files?
         F  Output tower data?
         F  Output formatted FF files?
         F  Output coherent turbulence time step file?
         T  Clockwise rotation when looking downwind?
 0 -  NONE  IEC turbulence models scaled to exact specified standard deviation


Turbine/Model Specifications:

        11  Vertical grid-point matrix dimension
        11  Horizontal grid-point matrix dimension
     0.010  Time step [seconds]
   630.000  Analysis time [seconds]
   630.000  Usable output time [seconds]
   100.000  Hub height [m]
   130.000  Grid height [m]
   130.000  Grid width [m]
     0.000  Vertical flow angle [degrees]
     0.000  Horizontal flow angle [degrees]


Meteorological Boundary Conditions:

    IECKAI  IEC Kaimal spectral model
         1  IEC standard: IEC 61400-1 Ed. 3: 2005
         B  IEC turbulence characteristic
       NTM  IEC Normal Turbulence Model
       N/A  IEC Extreme Turbulence Model (ETM) "c" parameter [m/s]
       PL   Wind profile type
    80.000  Reference height [m]
    15.000  Reference wind speed [m/s]
       N/A  Jet height [m]
     0.110  Power law exponent
     0.030  Surface roughness length [m]


You have requested that the following file(s) be generated:

   TurbSim_ws_15.wnd (AeroDyn/BLADED full-field wnd file)


Turbulence Simulation Scaling Parameter Summary:

   Turbulence model used                            =  IEC Kaimal
   Turbulence characteristic                        =  B
   IEC turbulence type                              =  Normal Turbulence Model
   IEC standard                                     =  IEC 61400-1 Ed. 3: 2005
   Mean wind speed at hub height                    =   15.373 m/s
   Expected value of turbulence intensity at 15 m/s =   14.000%
   Characteristic value of standard deviation       =    2.398 m/s
   Turbulence scale                                 =   42.000 m
   u-component integral scale                       =  340.200 m
   Coherency scale                                  =  340.200 m
   Characteristic value of hub turbulence intensity =   15.600%
   Gradient Richardson number                       =    0.000

   Wind profile type                                =  Power law
   Power law exponent                               =    0.110
   Mean shear across rotor disk                     =    0.020 (m/s)/m
   Assumed rotor diameter                           =  130.000 m
   Surface roughness length                         =    0.030 m

   Number of time steps in the FFT                  =    63888
   Number of time steps output                      =    63846


Mean Flow Angles:

   Vertical   =   0.0 degrees
   Horizontal =   0.0 degrees

Mean Wind Speed Profile:

   Height    Wind Speed   Horizontal Angle  U-comp (X)   V-comp (Y)   W-comp (Z)
     (m)        (m/s)         (degrees)       (m/s)        (m/s)        (m/s)   
   ------    ----------   ----------------  ----------   ----------   ----------
    165.0       16.24            0.00         16.24         0.00         0.00
    152.0       16.10            0.00         16.10         0.00         0.00
    139.0       15.94            0.00         15.94         0.00         0.00
    126.0       15.77            0.00         15.77         0.00         0.00
    113.0       15.58            0.00         15.58         0.00         0.00
    100.0       15.37            0.00         15.37         0.00         0.00
     87.0       15.14            0.00         15.14         0.00         0.00
     74.0       14.87            0.00         14.87         0.00         0.00
     61.0       14.56            0.00         14.56         0.00         0.00
     48.0       14.18            0.00         14.18         0.00         0.00
     35.0       13.70            0.00         13.70         0.00         0.00


Harvested Random Seeds after Generation of the Random Numbers:

    107743119 K1
            0 K2


Hub-Height Simulated Turbulence Statistical Summary:

   Type of Wind        Min (m/s)   Mean (m/s)    Max (m/s)  Sigma (m/s)       TI (%)
   ----------------    ---------   ----------    ---------  -----------       ------
   Longitudinal (u)         8.94        15.37        23.57        2.207       14.356
   Lateral (v)             -6.74         0.00         7.74        1.891       12.301
   Vertical (w)            -4.76         0.00         4.57        1.187        7.719
   U component              8.94        15.37        23.57        2.207       14.356
   V component             -6.74         0.00         7.74        1.891       12.301
   W component             -4.76         0.00         4.57        1.187        7.719
   Horizontal (U&V)         8.95        15.49        23.59        2.180       14.074
   Total                    9.02        15.54        23.65        2.173       13.984

                       Min Reynolds     Mean Reynolds    Max Reynolds    Correlation
   Product             Stress (m/s)^2   Stress (m/s)^2   Stress (m/s)^2  Coefficient
   ----------------    --------------   --------------   --------------  -----------
   u'w'                    -16.898             0.192            23.635         0.073
   u'v'                    -28.957             0.373            25.498         0.089
   v'w'                    -15.217             0.015            15.031         0.007


   Friction Velocity (Ustar)  =      0.438 m/s
   Maximum Instantaneous TKE  =     36.541 (m/s)^2
   Maximum Instantaneous CTKE =     14.680 (m/s)^2


Grid Point Variance Summary:

   Y-coord  -65.00  -52.00  -39.00  -26.00  -13.00    0.00   13.00   26.00   39.00   52.00   65.00

   Height   Standard deviation at grid points for the u component:
   165.00    2.187   2.106   2.173   2.264   2.399   2.465   2.618   2.310   2.161   2.253   2.197
   152.00    2.405   2.312   2.099   2.296   2.379   2.409   2.396   2.328   2.269   2.196   2.231
   139.00    2.458   2.338   2.444   2.379   2.412   2.272   2.316   2.346   2.148   2.220   2.427
   126.00    2.358   2.430   2.395   2.429   2.473   2.310   2.355   2.270   2.192   2.178   2.612
   113.00    2.353   2.485   2.532   2.456   2.444   2.269   2.214   2.142   2.277   2.412   2.466
   100.00    2.670   2.651   2.630   2.493   2.430   2.207   2.174   2.219   2.312   2.373   2.378
    87.00    2.659   2.675   2.647   2.533   2.419   2.329   2.264   2.260   2.254   2.250   2.375
    74.00    2.742   2.632   2.559   2.574   2.476   2.423   2.481   2.443   2.096   2.207   2.271
    61.00    2.659   2.604   2.628   2.372   2.351   2.282   2.388   2.271   2.188   2.149   2.167
    48.00    2.510   2.553   2.484   2.423   2.339   2.136   2.297   2.114   2.085   2.112   2.145
    35.00    2.315   2.437   2.508   2.445   2.269   2.052   2.230   2.246   2.102   2.148   2.156

   Height   Standard deviation at grid points for the v component:
   165.00    1.891   1.891   1.891   1.891   1.891   1.891   1.891   1.891   1.891   1.891   1.891
   152.00    1.891   1.891   1.891   1.891   1.891   1.891   1.891   1.891   1.891   1.891   1.891
   139.00    1.891   1.891   1.891   1.891   1.891   1.891   1.891   1.891   1.891   1.891   1.891
   126.00    1.891   1.891   1.891   1.891   1.891   1.891   1.891   1.891   1.891   1.891   1.891
   113.00    1.891   1.891   1.891   1.891   1.891   1.891   1.891   1.891   1.891   1.891   1.891
   100.00    1.891   1.891   1.891   1.891   1.891   1.891   1.891   1.891   1.891   1.891   1.891
    87.00    1.891   1.891   1.891   1.891   1.891   1.891   1.891   1.891   1.891   1.891   1.891
    74.00    1.891   1.891   1.891   1.891   1.891   1.891   1.891   1.891   1.891   1.891   1.891
    61.00    1.891   1.891   1.891   1.891   1.891   1.891   1.891   1.891   1.891   1.891   1.891
    48.00    1.891   1.891   1.891   1.891   1.891   1.891   1.891   1.891   1.891   1.891   1.891
    35.00    1.891   1.891   1.891   1.891   1.891   1.891   1.891   1.891   1.891   1.891   1.891

   Height   Standard deviation at grid points for the w component:
   165.00    1.187   1.187   1.187   1.187   1.187   1.187   1.187   1.187   1.187   1.187   1.187
   152.00    1.187   1.187   1.187   1.187   1.187   1.187   1.187   1.187   1.187   1.187   1.187
   139.00    1.187   1.187   1.187   1.187   1.187   1.187   1.187   1.187   1.187   1.187   1.187
   126.00    1.187   1.187   1.187   1.187   1.187   1.187   1.187   1.187   1.187   1.187   1.187
   113.00    1.187   1.187   1.187   1.187   1.187   1.187   1.187   1.187   1.187   1.187   1.187
   100.00    1.187   1.187   1.187   1.187   1.187   1.187   1.187   1.187   1.187   1.187   1.187
    87.00    1.187   1.187   1.187   1.187   1.187   1.187   1.187   1.187   1.187   1.187   1.187
    74.00    1.187   1.187   1.187   1.187   1.187   1.187   1.187   1.187   1.187   1.187   1.187
    61.00    1.187   1.187   1.187   1.187   1.187   1.187   1.187   1.187   1.187   1.187   1.187
    48.00    1.187   1.187   1.187   1.187   1.187   1.187   1.187   1.187   1.187   1.187   1.187
    35.00    1.187   1.187   1.187   1.187   1.187   1.187   1.187   1.187   1.187   1.187   1.187

   Mean standard deviation across all grid points:
      u component:    2.352 m/s
      v component:    1.891 m/s
      w component:    1.187 m/s


U-component (X) statistics from the hub grid point:

   Mean =  15.3727 m/s
   TI   =  14.3559 %


Normalizing Parameters for Binary Data (approximate statistics):

   UBar  =  15.3727 m/s
   TI(u) =  14.3559 %
   TI(v) =  12.3006 %
   TI(w) =   7.7190 %

   Height Offset =   0.0000 m
   Grid Base     =  35.0000 m

Nyquist frequency of turbulent wind field =        50.000 Hz


Processing complete.  6.8438 CPU seconds used.
