
This summary file was generated by TurbSim (v1.06.00, 21-Sep-2012) on 13-Jul-2016 at 15:31:07.


Runtime Options:

   2318573  Random seed #1
    RANLUX  Type of random number generator
         F  Output binary HH turbulence parameters?
         F  Output formatted turbulence parameters?
         F  Output AeroDyn HH files?
         F  Output AeroDyn FF files?
         T  Output BLADED FF files?
         F  Output tower data?
         F  Output formatted FF files?
         F  Output coherent turbulence time step file?
         T  Clockwise rotation when looking downwind?
 0 -  NONE  IEC turbulence models scaled to exact specified standard deviation


Turbine/Model Specifications:

        11  Vertical grid-point matrix dimension
        11  Horizontal grid-point matrix dimension
     0.010  Time step [seconds]
   630.000  Analysis time [seconds]
   630.000  Usable output time [seconds]
   100.000  Hub height [m]
   130.000  Grid height [m]
   130.000  Grid width [m]
     0.000  Vertical flow angle [degrees]
     0.000  Horizontal flow angle [degrees]


Meteorological Boundary Conditions:

    IECKAI  IEC Kaimal spectral model
         1  IEC standard: IEC 61400-1 Ed. 3: 2005
    13.700  Percent turbulence intensity, IEC 61400-1 Ed. 3: 2005
       NTM  IEC Normal Turbulence Model
       N/A  IEC Extreme Turbulence Model (ETM) "c" parameter [m/s]
       PL   Wind profile type
    80.000  Reference height [m]
    25.000  Reference wind speed [m/s]
       N/A  Jet height [m]
     0.110  Power law exponent
     0.030  Surface roughness length [m]


You have requested that the following file(s) be generated:

   TurbSim_ws_wake25.wnd (AeroDyn/BLADED full-field wnd file)


Turbulence Simulation Scaling Parameter Summary:

   Turbulence model used                            =  IEC Kaimal
   Turbulence characteristic                        =  User-specified
   IEC standard                                     =  IEC 61400-1 Ed. 3: 2005
   Mean wind speed at hub height                    =   25.621 m/s
   Characteristic value of standard deviation       =    3.510 m/s
   Turbulence scale                                 =   42.000 m
   u-component integral scale                       =  340.200 m
   Coherency scale                                  =  340.200 m
   Characteristic value of hub turbulence intensity =   13.700%
   Gradient Richardson number                       =    0.000

   Wind profile type                                =  Power law
   Power law exponent                               =    0.110
   Mean shear across rotor disk                     =    0.033 (m/s)/m
   Assumed rotor diameter                           =  130.000 m
   Surface roughness length                         =    0.030 m

   Number of time steps in the FFT                  =    63536
   Number of time steps output                      =    63508


Mean Flow Angles:

   Vertical   =   0.0 degrees
   Horizontal =   0.0 degrees

Mean Wind Speed Profile:

   Height    Wind Speed   Horizontal Angle  U-comp (X)   V-comp (Y)   W-comp (Z)
     (m)        (m/s)         (degrees)       (m/s)        (m/s)        (m/s)   
   ------    ----------   ----------------  ----------   ----------   ----------
    165.0       27.07            0.00         27.07         0.00         0.00
    152.0       26.83            0.00         26.83         0.00         0.00
    139.0       26.57            0.00         26.57         0.00         0.00
    126.0       26.28            0.00         26.28         0.00         0.00
    113.0       25.97            0.00         25.97         0.00         0.00
    100.0       25.62            0.00         25.62         0.00         0.00
     87.0       25.23            0.00         25.23         0.00         0.00
     74.0       24.79            0.00         24.79         0.00         0.00
     61.0       24.27            0.00         24.27         0.00         0.00
     48.0       23.63            0.00         23.63         0.00         0.00
     35.0       22.83            0.00         22.83         0.00         0.00


Harvested Random Seeds after Generation of the Random Numbers:

    107149493 K1
            0 K2


Hub-Height Simulated Turbulence Statistical Summary:

   Type of Wind        Min (m/s)   Mean (m/s)    Max (m/s)  Sigma (m/s)       TI (%)
   ----------------    ---------   ----------    ---------  -----------       ------
   Longitudinal (u)        14.15        25.62        37.44        3.226       12.591
   Lateral (v)             -9.84         0.00         9.70        2.777       10.839
   Vertical (w)            -6.45         0.00         6.44        1.733        6.765
   U component             14.15        25.62        37.44        3.226       12.591
   V component             -9.84         0.00         9.70        2.777       10.839
   W component             -6.45         0.00         6.44        1.733        6.765
   Horizontal (U&V)        14.19        25.77        37.44        3.208       12.447
   Total                   14.19        25.83        37.44        3.200       12.388

                       Min Reynolds     Mean Reynolds    Max Reynolds    Correlation
   Product             Stress (m/s)^2   Stress (m/s)^2   Stress (m/s)^2  Coefficient
   ----------------    --------------   --------------   --------------  -----------
   u'w'                    -45.320            -0.376            37.330        -0.067
   u'v'                    -73.235            -0.403            53.592        -0.045
   v'w'                    -38.235            -0.381            35.851        -0.079


   Friction Velocity (Ustar)  =      0.613 m/s
   Maximum Instantaneous TKE  =     78.969 (m/s)^2
   Maximum Instantaneous CTKE =     39.221 (m/s)^2


Grid Point Variance Summary:

   Y-coord  -65.00  -52.00  -39.00  -26.00  -13.00    0.00   13.00   26.00   39.00   52.00   65.00

   Height   Standard deviation at grid points for the u component:
   165.00    3.225   3.273   3.415   3.651   3.406   3.253   3.398   3.547   3.318   3.356   3.383
   152.00    3.404   3.242   3.257   3.545   3.420   3.267   3.190   3.279   3.170   3.251   3.236
   139.00    3.306   3.253   3.267   3.500   3.495   3.421   3.440   3.080   3.149   3.169   3.335
   126.00    3.275   3.317   3.300   3.459   3.510   3.245   3.334   3.518   3.468   3.364   3.273
   113.00    3.356   3.479   3.319   3.285   3.143   3.092   3.374   3.253   3.262   3.212   3.318
   100.00    3.357   3.333   3.206   3.298   3.259   3.226   3.315   3.235   3.145   3.346   3.308
    87.00    3.349   3.265   3.082   3.224   3.192   3.299   3.493   3.388   3.215   3.347   3.324
    74.00    3.398   3.367   3.341   3.204   3.341   3.345   3.385   3.210   3.298   3.265   3.278
    61.00    3.416   3.271   3.474   3.570   3.288   3.218   3.353   3.222   3.435   3.375   3.590
    48.00    3.464   3.133   3.438   3.232   3.259   3.293   3.257   3.373   3.485   3.353   3.454
    35.00    3.431   3.487   3.461   3.293   3.208   3.452   3.385   3.453   3.493   3.394   3.275

   Height   Standard deviation at grid points for the v component:
   165.00    2.777   2.777   2.777   2.777   2.777   2.777   2.777   2.777   2.777   2.777   2.777
   152.00    2.777   2.777   2.777   2.777   2.777   2.777   2.777   2.777   2.777   2.777   2.777
   139.00    2.777   2.777   2.777   2.777   2.777   2.777   2.777   2.777   2.777   2.777   2.777
   126.00    2.777   2.777   2.777   2.777   2.777   2.777   2.777   2.777   2.777   2.777   2.777
   113.00    2.777   2.777   2.777   2.777   2.777   2.777   2.777   2.777   2.777   2.777   2.777
   100.00    2.777   2.777   2.777   2.777   2.777   2.777   2.777   2.777   2.777   2.777   2.777
    87.00    2.777   2.777   2.777   2.777   2.777   2.777   2.777   2.777   2.777   2.777   2.777
    74.00    2.777   2.777   2.777   2.777   2.777   2.777   2.777   2.777   2.777   2.777   2.777
    61.00    2.777   2.777   2.777   2.777   2.777   2.777   2.777   2.777   2.777   2.777   2.777
    48.00    2.777   2.777   2.777   2.777   2.777   2.777   2.777   2.777   2.777   2.777   2.777
    35.00    2.777   2.777   2.777   2.777   2.777   2.777   2.777   2.777   2.777   2.777   2.777

   Height   Standard deviation at grid points for the w component:
   165.00    1.733   1.733   1.733   1.733   1.733   1.733   1.733   1.733   1.733   1.733   1.733
   152.00    1.733   1.733   1.733   1.733   1.733   1.733   1.733   1.733   1.733   1.733   1.733
   139.00    1.733   1.733   1.733   1.733   1.733   1.733   1.733   1.733   1.733   1.733   1.733
   126.00    1.733   1.733   1.733   1.733   1.733   1.733   1.733   1.733   1.733   1.733   1.733
   113.00    1.733   1.733   1.733   1.733   1.733   1.733   1.733   1.733   1.733   1.733   1.733
   100.00    1.733   1.733   1.733   1.733   1.733   1.733   1.733   1.733   1.733   1.733   1.733
    87.00    1.733   1.733   1.733   1.733   1.733   1.733   1.733   1.733   1.733   1.733   1.733
    74.00    1.733   1.733   1.733   1.733   1.733   1.733   1.733   1.733   1.733   1.733   1.733
    61.00    1.733   1.733   1.733   1.733   1.733   1.733   1.733   1.733   1.733   1.733   1.733
    48.00    1.733   1.733   1.733   1.733   1.733   1.733   1.733   1.733   1.733   1.733   1.733
    35.00    1.733   1.733   1.733   1.733   1.733   1.733   1.733   1.733   1.733   1.733   1.733

   Mean standard deviation across all grid points:
      u component:    3.330 m/s
      v component:    2.777 m/s
      w component:    1.733 m/s


U-component (X) statistics from the hub grid point:

   Mean =  25.6212 m/s
   TI   =  12.5908 %


Normalizing Parameters for Binary Data (approximate statistics):

   UBar  =  25.6212 m/s
   TI(u) =  12.5908 %
   TI(v) =  10.8385 %
   TI(w) =   6.7655 %

   Height Offset =   0.0000 m
   Grid Base     =  35.0000 m

Nyquist frequency of turbulent wind field =        50.000 Hz


Processing complete.  6.6875 CPU seconds used.
