
These predictions were generated by FAST (v7.01.00a-bjj, 16-Feb-2012) on 14-Jul-2016 at 18:51:50.
The aerodynamic calculations were made by AeroDyn (v13.00.01a-bjj, 16-Feb-2012).

 Test file with data from WindPACT 1.5 MW turbine. LVT July 2014

Time	WindVxi	WindVyi	WindVzi	RootFxc2	RootFyc2	RootFzc2	RootMxc2	RootMyc2	RootMzc2	RootMFlp2	RootMedg2	RotThrust	RotSpeed	TwrBsFxt	TwrBsFyt	TwrBsFzt	TwrBsMxt	TwrBsMyt	TwrBsMzt	GenPwr	GenTq	BldPitch2
(s)	(m/s)	(m/s)	(m/s)	(kN)	(kN)	(kN)	(kN·m)	(kN·m)	(kN·m)	(kN·m)	(kN·m)	(kN)	(rpm)	(kN)	(kN)	(kN)	(kN·m)	(kN·m)	(kN·m)	(kW)	(kN·m)	(deg)
  60.000	 2.113E+01	 3.176E-01	 3.113E-01	 6.358E+01	-9.418E+01	 5.505E+02	 1.098E+03	 6.355E+02	 2.340E+01	 1.026E+03	 7.470E+02	 1.091E+02	 2.034E+01	 1.351E+02	-2.870E-01	-2.027E+03	 6.555E+02	 1.007E+04	-2.023E+02	 1.470E+03	 8.265E+00	 2.389E+01
  60.050	 2.170E+01	-4.788E-01	 1.923E-01	 6.428E+01	-9.674E+01	 5.534E+02	 1.260E+03	 7.571E+02	 2.002E+01	 1.202E+03	 8.465E+02	 1.040E+02	 2.034E+01	 1.297E+02	 4.129E+00	-2.015E+03	 4.709E+02	 9.894E+03	-6.261E+01	 1.472E+03	 8.273E+00	 2.386E+01
  60.100	 2.098E+01	-5.622E-01	 1.218E+00	 6.689E+01	-1.041E+02	 5.569E+02	 1.346E+03	 8.454E+02	 1.731E+01	 1.318E+03	 8.888E+02	 1.083E+02	 2.035E+01	 1.257E+02	 9.817E+00	-2.009E+03	 2.913E+02	 9.788E+03	 9.337E+01	 1.479E+03	 8.296E+00	 2.389E+01
  60.150	 2.167E+01	-7.970E-01	 1.085E+00	 8.688E+01	-1.187E+02	 5.591E+02	 1.496E+03	 1.092E+03	 2.407E+01	 1.603E+03	 9.277E+02	 1.246E+02	 2.030E+01	 1.298E+02	 9.602E+00	-2.032E+03	 2.909E+02	 9.912E+03	 3.224E+02	 1.468E+03	 8.257E+00	 2.383E+01
  60.200	 2.300E+01	 1.109E+00	 8.170E-01	 8.079E+01	-1.129E+02	 5.625E+02	 1.545E+03	 1.145E+03	 1.732E+01	 1.671E+03	 9.528E+02	 1.133E+02	 2.028E+01	 1.319E+02	 4.869E+00	-2.031E+03	 4.251E+02	 1.008E+04	 4.421E+02	 1.461E+03	 8.231E+00	 2.377E+01
  60.250	 2.253E+01	 2.019E+00	 1.372E+00	 8.094E+01	-1.093E+02	 5.641E+02	 1.611E+03	 1.231E+03	 1.219E+01	 1.775E+03	 9.797E+02	 1.198E+02	 2.026E+01	 1.426E+02	-2.201E+00	-2.021E+03	 6.052E+02	 1.045E+04	 5.466E+02	 1.458E+03	 8.219E+00	 2.373E+01
  60.300	 2.240E+01	 3.228E+00	 3.379E-01	 1.030E+02	-1.305E+02	 5.675E+02	 1.734E+03	 1.424E+03	 2.376E+01	 2.001E+03	 1.015E+03	 1.396E+02	 2.026E+01	 1.500E+02	-8.937E-01	-2.052E+03	 5.927E+02	 1.082E+04	 6.834E+02	 1.455E+03	 8.209E+00	 2.373E+01
  60.350	 2.284E+01	 2.897E+00	 2.709E-01	 9.167E+01	-1.198E+02	 5.715E+02	 1.725E+03	 1.351E+03	 1.734E+01	 1.930E+03	 1.038E+03	 1.284E+02	 2.022E+01	 1.638E+02	 4.237E+00	-2.041E+03	 4.838E+02	 1.130E+04	 5.677E+02	 1.446E+03	 8.174E+00	 2.366E+01
  60.400	 2.171E+01	 2.411E+00	 6.443E-01	 8.653E+01	-1.215E+02	 5.746E+02	 1.739E+03	 1.263E+03	 1.412E+01	 1.853E+03	 1.088E+03	 1.133E+02	 2.019E+01	 1.708E+02	 7.665E+00	-2.053E+03	 4.147E+02	 1.161E+04	 5.139E+02	 1.439E+03	 8.148E+00	 2.359E+01
  60.450	 2.111E+01	 3.093E+00	 6.549E-01	 8.595E+01	-1.287E+02	 5.772E+02	 1.760E+03	 1.200E+03	 1.589E+01	 1.801E+03	 1.136E+03	 1.112E+02	 2.014E+01	 1.706E+02	 2.987E+00	-2.058E+03	 5.439E+02	 1.167E+04	 4.560E+02	 1.427E+03	 8.102E+00	 2.346E+01
  60.500	 2.061E+01	 2.796E+00	-6.016E-01	 9.122E+01	-1.332E+02	 5.821E+02	 1.805E+03	 1.218E+03	 2.094E+01	 1.835E+03	 1.173E+03	 1.075E+02	 2.010E+01	 1.605E+02	-2.476E+00	-2.061E+03	 7.266E+02	 1.144E+04	 4.703E+02	 1.423E+03	 8.085E+00	 2.340E+01
  60.550	 2.153E+01	 3.650E+00	-6.205E-01	 9.210E+01	-1.312E+02	 5.849E+02	 1.772E+03	 1.224E+03	 2.133E+01	 1.825E+03	 1.143E+03	 1.202E+02	 2.009E+01	 1.512E+02	-1.047E+01	-2.057E+03	 9.521E+02	 1.115E+04	 4.484E+02	 1.419E+03	 8.070E+00	 2.331E+01
  60.600	 2.213E+01	 3.073E+00	-4.991E-01	 8.335E+01	-1.173E+02	 5.876E+02	 1.699E+03	 1.189E+03	 1.830E+01	 1.765E+03	 1.089E+03	 1.079E+02	 2.010E+01	 1.417E+02	-1.052E+01	-2.058E+03	 9.853E+02	 1.087E+04	 4.388E+02	 1.425E+03	 8.095E+00	 2.334E+01
  60.650	 2.171E+01	 3.940E+00	 1.330E-01	 9.035E+01	-1.162E+02	 5.923E+02	 1.645E+03	 1.260E+03	 2.193E+01	 1.810E+03	 1.007E+03	 1.098E+02	 2.016E+01	 1.338E+02	-1.298E+00	-2.060E+03	 7.969E+02	 1.069E+04	 4.170E+02	 1.437E+03	 8.140E+00	 2.347E+01
  60.700	 2.204E+01	 4.914E+00	 3.934E-01	 9.236E+01	-1.141E+02	 5.954E+02	 1.522E+03	 1.273E+03	 2.314E+01	 1.774E+03	 8.866E+02	 1.253E+02	 2.019E+01	 1.434E+02	 2.458E+00	-2.055E+03	 6.900E+02	 1.091E+04	 3.015E+02	 1.446E+03	 8.174E+00	 2.354E+01
  60.750	 2.183E+01	 2.524E+00	 1.124E+00	 9.989E+01	-1.081E+02	 5.972E+02	 1.424E+03	 1.404E+03	 2.887E+01	 1.856E+03	 7.446E+02	 1.429E+02	 2.023E+01	 1.494E+02	 3.821E+00	-2.042E+03	 6.450E+02	 1.111E+04	 1.311E+02	 1.449E+03	 8.185E+00	 2.354E+01
  60.800	 2.219E+01	 3.275E+00	-1.738E-01	 1.015E+02	-1.043E+02	 6.001E+02	 1.258E+03	 1.421E+03	 2.986E+01	 1.806E+03	 5.837E+02	 1.456E+02	 2.025E+01	 1.598E+02	 2.273E+00	-2.058E+03	 6.703E+02	 1.138E+04	 2.273E+02	 1.453E+03	 8.201E+00	 2.362E+01
  60.850	 2.149E+01	 2.619E+00	 1.223E-01	 1.024E+02	-9.655E+01	 6.015E+02	 1.175E+03	 1.518E+03	 3.133E+01	 1.862E+03	 4.685E+02	 1.392E+02	 2.026E+01	 1.554E+02	-5.739E+00	-2.025E+03	 8.035E+02	 1.132E+04	 1.168E+02	 1.454E+03	 8.205E+00	 2.360E+01
  60.900	 2.264E+01	 3.136E+00	 6.110E-01	 1.144E+02	-9.754E+01	 6.032E+02	 1.008E+03	 1.643E+03	 3.787E+01	 1.908E+03	 2.671E+02	 1.710E+02	 2.024E+01	 1.534E+02	-8.679E+00	-2.031E+03	 7.797E+02	 1.130E+04	 1.746E+02	 1.450E+03	 8.191E+00	 2.356E+01
  60.950	 2.154E+01	 2.173E+00	-2.109E-01	 9.618E+01	-7.076E+01	 6.037E+02	 8.286E+02	 1.595E+03	 2.597E+01	 1.793E+03	 1.233E+02	 1.354E+02	 2.021E+01	 1.477E+02	-3.895E+00	-2.029E+03	 5.307E+02	 1.126E+04	 2.005E+02	 1.446E+03	 8.174E+00	 2.351E+01
  61.000	 2.281E+01	 2.520E+00	 1.106E-01	 1.017E+02	-6.705E+01	 6.037E+02	 6.746E+02	 1.656E+03	 2.749E+01	 1.788E+03	-4.035E+01	 1.420E+02	 2.018E+01	 1.482E+02	 6.001E+00	-2.039E+03	 1.334E+02	 1.141E+04	 4.178E+02	 1.441E+03	 8.153E+00	 2.346E+01
  61.050	 2.265E+01	 1.683E+00	-9.900E-01	 1.103E+02	-6.152E+01	 6.028E+02	 5.468E+02	 1.770E+03	 3.461E+01	 1.842E+03	-2.011E+02	 1.579E+02	 2.017E+01	 1.592E+02	 1.104E+01	-2.024E+03	-1.808E+02	 1.184E+04	 3.103E+02	 1.437E+03	 8.139E+00	 2.339E+01
  61.100	 2.248E+01	 1.683E+00	-1.554E+00	 1.085E+02	-4.230E+01	 6.013E+02	 3.913E+02	 1.827E+03	 3.009E+01	 1.832E+03	-3.660E+02	 1.547E+02	 2.016E+01	 1.685E+02	 1.644E+01	-2.036E+03	-4.735E+02	 1.230E+04	 3.712E+02	 1.437E+03	 8.141E+00	 2.339E+01
  61.150	 2.133E+01	 1.749E+00	-6.198E-01	 1.197E+02	-4.809E+01	 5.993E+02	 2.366E+02	 1.843E+03	 3.428E+01	 1.785E+03	-5.165E+02	 1.604E+02	 2.021E+01	 1.805E+02	 2.084E+01	-2.038E+03	-7.100E+02	 1.283E+04	 2.944E+02	 1.445E+03	 8.169E+00	 2.346E+01
  61.200	 2.081E+01	 1.086E+00	-7.002E-01	 1.013E+02	-2.006E+01	 5.972E+02	 5.050E+01	 1.720E+03	 2.465E+01	 1.597E+03	-6.399E+02	 1.390E+02	 2.025E+01	 1.905E+02	 1.765E+01	-2.038E+03	-7.934E+02	 1.328E+04	 3.003E+02	 1.452E+03	 8.198E+00	 2.351E+01
  61.250	 2.097E+01	 4.419E-01	-2.300E-01	 9.276E+01	-1.036E+01	 5.940E+02	-1.928E+02	 1.533E+03	 2.234E+01	 1.328E+03	-7.892E+02	 1.291E+02	 2.026E+01	 1.985E+02	 2.032E+01	-2.044E+03	-9.856E+02	 1.359E+04	 1.405E+02	 1.457E+03	 8.215E+00	 2.355E+01
  61.300	 2.116E+01	 4.234E-01	-7.812E-01	 9.528E+01	-1.215E+01	 5.904E+02	-3.643E+02	 1.409E+03	 2.566E+01	 1.146E+03	-8.973E+02	 1.418E+02	 2.028E+01	 1.916E+02	 2.270E+01	-2.037E+03	-1.184E+03	 1.349E+04	 1.347E+02	 1.461E+03	 8.229E+00	 2.357E+01
  61.350	 2.117E+01	 5.046E-01	-3.158E-01	 8.039E+01	 5.770E-01	 5.871E+02	-5.291E+02	 1.165E+03	 2.209E+01	 8.568E+02	-9.502E+02	 1.181E+02	 2.026E+01	 1.819E+02	 2.743E+01	-2.026E+03	-1.424E+03	 1.324E+04	-3.404E+01	 1.455E+03	 8.206E+00	 2.353E+01
  61.400	 2.207E+01	 1.121E+00	-1.247E-01	 6.531E+01	 1.817E+01	 5.837E+02	-7.299E+02	 9.187E+02	 2.136E+01	 5.525E+02	-1.035E+03	 1.167E+02	 2.021E+01	 1.623E+02	 3.172E+01	-2.049E+03	-1.614E+03	 1.273E+04	 1.694E+02	 1.446E+03	 8.173E+00	 2.344E+01
  61.450	 2.099E+01	 1.970E+00	-8.835E-01	 5.995E+01	 1.813E+01	 5.816E+02	-8.917E+02	 6.856E+02	 1.903E+01	 2.758E+02	-1.090E+03	 1.198E+02	 2.019E+01	 1.577E+02	 3.153E+01	-2.037E+03	-1.660E+03	 1.251E+04	 3.161E+02	 1.437E+03	 8.141E+00	 2.336E+01
  61.500	 2.148E+01	 1.185E+00	-1.426E+00	 5.272E+01	 2.174E+01	 5.780E+02	-1.023E+03	 4.776E+02	 1.721E+01	 3.413E+01	-1.128E+03	 1.225E+02	 2.016E+01	 1.496E+02	 2.660E+01	-2.047E+03	-1.541E+03	 1.228E+04	 6.301E+02	 1.431E+03	 8.117E+00	 2.330E+01
  61.550	 2.190E+01	 2.050E+00	-7.641E-01	 3.240E+01	 4.079E+01	 5.743E+02	-1.148E+03	 2.585E+02	 1.250E+01	-2.161E+02	-1.157E+03	 8.795E+01	 2.014E+01	 1.511E+02	 2.442E+01	-2.063E+03	-1.420E+03	 1.233E+04	 8.054E+02	 1.429E+03	 8.110E+00	 2.326E+01
  61.600	 2.301E+01	 2.365E+00	 8.045E-01	 4.477E+01	 3.842E+01	 5.706E+02	-1.260E+03	 2.837E+02	 1.645E+01	-2.363E+02	-1.270E+03	 1.159E+02	 2.012E+01	 1.642E+02	 2.176E+01	-2.067E+03	-1.261E+03	 1.264E+04	 9.049E+02	 1.424E+03	 8.091E+00	 2.323E+01
  61.650	 2.241E+01	 2.029E+00	-3.430E-01	 2.240E+01	 6.203E+01	 5.681E+02	-1.396E+03	 1.558E+02	 7.932E-01	-4.074E+02	-1.344E+03	 9.437E+01	 2.013E+01	 1.815E+02	 1.837E+01	-2.080E+03	-1.106E+03	 1.300E+04	 1.108E+03	 1.427E+03	 8.101E+00	 2.323E+01
  61.700	 2.234E+01	 1.493E+00	 2.294E-01	 3.743E+01	 5.544E+01	 5.646E+02	-1.410E+03	 2.944E+02	 6.069E+00	-2.865E+02	-1.411E+03	 1.160E+02	 2.016E+01	 1.916E+02	 1.650E+01	-2.063E+03	-1.012E+03	 1.309E+04	 1.059E+03	 1.434E+03	 8.130E+00	 2.328E+01
  61.750	 2.157E+01	 1.674E+00	 3.125E-01	 4.519E+01	 5.659E+01	 5.597E+02	-1.388E+03	 4.590E+02	 6.337E+00	-1.286E+02	-1.457E+03	 1.227E+02	 2.023E+01	 1.782E+02	 2.019E+01	-2.056E+03	-1.064E+03	 1.258E+04	 8.505E+02	 1.451E+03	 8.192E+00	 2.334E+01
  61.800	 2.185E+01	 1.107E+00	 1.170E+00	 6.372E+01	 4.314E+01	 5.560E+02	-1.366E+03	 6.795E+02	 6.397E+00	 7.960E+01	-1.524E+03	 1.548E+02	 2.030E+01	 1.622E+02	 2.217E+01	-2.032E+03	-1.102E+03	 1.191E+04	 7.218E+02	 1.466E+03	 8.248E+00	 2.346E+01
  61.850	 2.185E+01	 2.182E+00	 1.125E+00	 6.458E+01	 5.130E+01	 5.486E+02	-1.381E+03	 8.050E+02	 3.797E+00	 1.839E+02	-1.588E+03	 1.573E+02	 2.039E+01	 1.437E+02	 2.599E+01	-2.036E+03	-1.161E+03	 1.126E+04	 4.551E+02	 1.483E+03	 8.313E+00	 2.363E+01
  61.900	 2.271E+01	 1.978E+00	 1.301E+00	 6.137E+01	 4.805E+01	 5.434E+02	-1.457E+03	 7.919E+02	-4.631E+00	 1.390E+02	-1.653E+03	 1.590E+02	 2.042E+01	 1.447E+02	 2.287E+01	-2.032E+03	-1.068E+03	 1.112E+04	 4.712E+02	 1.492E+03	 8.348E+00	 2.372E+01
  61.950	 2.366E+01	 1.485E+00	 1.614E+00	 5.909E+01	 5.324E+01	 5.399E+02	-1.536E+03	 7.998E+02	-4.543E+00	 1.163E+02	-1.727E+03	 1.612E+02	 2.038E+01	 1.577E+02	 1.803E+01	-2.046E+03	-9.236E+02	 1.132E+04	 5.342E+02	 1.485E+03	 8.320E+00	 2.366E+01
  62.000	 2.415E+01	 1.231E+00	 1.606E+00	 7.008E+01	 3.960E+01	 5.340E+02	-1.480E+03	 8.702E+02	-3.510E-01	 2.060E+02	-1.704E+03	 1.681E+02	 2.032E+01	 1.657E+02	 1.132E+01	-2.028E+03	-7.604E+02	 1.143E+04	 3.406E+02	 1.468E+03	 8.257E+00	 2.357E+01
  62.050	 2.410E+01	 6.979E-01	 1.471E+00	 6.209E+01	 4.481E+01	 5.293E+02	-1.463E+03	 7.986E+02	-1.370E+00	 1.514E+02	-1.660E+03	 1.528E+02	 2.023E+01	 1.578E+02	 1.287E+01	-2.034E+03	-8.023E+02	 1.116E+04	 3.165E+02	 1.445E+03	 8.172E+00	 2.342E+01
  62.100	 2.393E+01	 1.305E+00	 1.736E+00	 5.379E+01	 4.182E+01	 5.278E+02	-1.418E+03	 6.386E+02	-1.941E+00	 2.747E+01	-1.555E+03	 1.344E+02	 2.014E+01	 1.411E+02	 1.561E+01	-2.045E+03	-9.118E+02	 1.070E+04	 5.553E+02	 1.432E+03	 8.120E+00	 2.323E+01
  62.150	 2.307E+01	 1.193E+00	 1.018E+00	 4.624E+01	 3.960E+01	 5.258E+02	-1.328E+03	 5.161E+02	 1.085E+00	-4.634E+01	-1.424E+03	 1.117E+02	 2.007E+01	 1.289E+02	 2.259E+01	-2.048E+03	-1.102E+03	 1.037E+04	 5.705E+02	 1.419E+03	 8.071E+00	 2.310E+01
  62.200	 2.257E+01	 1.637E-02	 1.381E+00	 4.849E+01	 4.360E+01	 5.244E+02	-1.289E+03	 5.204E+02	 8.271E+00	-2.707E+01	-1.390E+03	 1.369E+02	 2.009E+01	 1.293E+02	 2.764E+01	-2.055E+03	-1.220E+03	 1.044E+04	 5.108E+02	 1.421E+03	 8.081E+00	 2.310E+01
  62.250	 2.334E+01	 7.424E-01	 1.955E+00	 5.335E+01	 3.187E+01	 5.246E+02	-1.142E+03	 5.455E+02	 1.295E+01	 5.229E+01	-1.264E+03	 1.309E+02	 2.017E+01	 1.513E+02	 2.697E+01	-2.043E+03	-1.193E+03	 1.107E+04	 4.252E+02	 1.437E+03	 8.140E+00	 2.317E+01
  62.300	 2.385E+01	 1.800E+00	 2.175E+00	 5.907E+01	 1.835E+01	 5.255E+02	-9.940E+02	 5.759E+02	 1.700E+01	 1.348E+02	-1.141E+03	 1.419E+02	 2.031E+01	 1.728E+02	 2.169E+01	-2.035E+03	-1.055E+03	 1.171E+04	 3.024E+02	 1.464E+03	 8.242E+00	 2.335E+01
  62.350	 2.303E+01	 4.181E-01	 2.652E+00	 5.397E+01	 1.190E+01	 5.271E+02	-8.543E+02	 5.608E+02	 1.457E+01	 1.720E+02	-1.007E+03	 1.227E+02	 2.043E+01	 1.841E+02	 1.959E+01	-2.051E+03	-9.735E+02	 1.208E+04	 4.609E+02	 1.492E+03	 8.346E+00	 2.359E+01
  62.400	 2.350E+01	 5.198E-01	 2.207E+00	 4.230E+01	 1.059E+01	 5.264E+02	-7.516E+02	 4.934E+02	 3.076E+00	 1.494E+02	-8.865E+02	 1.139E+02	 2.046E+01	 1.735E+02	 1.881E+01	-2.033E+03	-9.006E+02	 1.183E+04	 4.168E+02	 1.501E+03	 8.377E+00	 2.372E+01
  62.450	 2.342E+01	 7.175E-01	 1.083E+00	 6.675E+01	-1.758E+01	 5.276E+02	-5.016E+02	 7.072E+02	 1.521E+01	 4.460E+02	-7.435E+02	 1.110E+02	 2.044E+01	 1.576E+02	 2.196E+01	-2.023E+03	-8.957E+02	 1.133E+04	 6.063E+02	 1.498E+03	 8.368E+00	 2.370E+01
  62.500	 2.355E+01	 6.168E-01	 6.433E-03	 7.594E+01	-2.710E+01	 5.283E+02	-2.933E+02	 8.292E+02	 2.170E+01	 6.422E+02	-6.009E+02	 1.305E+02	 2.038E+01	 1.284E+02	 1.699E+01	-2.051E+03	-7.177E+02	 1.058E+04	 8.901E+02	 1.481E+03	 8.306E+00	 2.362E+01
  62.550	 2.344E+01	-1.510E-01	 4.517E-01	 6.424E+01	-2.665E+01	 5.288E+02	-1.411E+02	 7.668E+02	 1.430E+01	 6.471E+02	-4.348E+02	 1.303E+02	 2.031E+01	 1.139E+02	 1.136E+01	-2.059E+03	-5.210E+02	 1.031E+04	 1.065E+03	 1.466E+03	 8.250E+00	 2.347E+01
  62.600	 2.410E+01	 9.375E-01	-2.151E-01	 6.433E+01	-4.053E+01	 5.289E+02	-3.340E+00	 7.264E+02	 1.220E+01	 6.657E+02	-2.908E+02	 1.403E+02	 2.025E+01	 1.289E+02	 9.458E+00	-2.059E+03	-4.071E+02	 1.084E+04	 1.074E+03	 1.451E+03	 8.193E+00	 2.333E+01
  62.650	 2.491E+01	 5.823E-01	-2.679E-02	 7.110E+01	-5.396E+01	 5.282E+02	 2.514E+02	 8.001E+02	 2.007E+01	 8.344E+02	-8.431E+01	 1.277E+02	 2.020E+01	 1.689E+02	 8.715E+00	-2.057E+03	-3.328E+02	 1.198E+04	 1.051E+03	 1.438E+03	 8.143E+00	 2.321E+01
  62.700	 2.439E+01	 2.619E-01	 3.087E-01	 5.820E+01	-4.735E+01	 5.297E+02	 4.394E+02	 7.441E+02	 1.528E+01	 8.571E+02	 1.100E+02	 1.114E+02	 2.020E+01	 1.961E+02	 1.035E+01	-2.059E+03	-3.187E+02	 1.284E+04	 1.035E+03	 1.445E+03	 8.170E+00	 2.324E+01
  62.750	 2.385E+01	-2.298E-01	-5.627E-01	 7.001E+01	-7.156E+01	 5.326E+02	 6.218E+02	 7.664E+02	 2.284E+01	 9.497E+02	 2.685E+02	 1.347E+02	 2.026E+01	 2.042E+02	 1.160E+01	-2.054E+03	-3.244E+02	 1.313E+04	 9.018E+02	 1.459E+03	 8.224E+00	 2.327E+01
  62.800	 2.313E+01	-2.206E-01	-1.871E-01	 7.395E+01	-8.283E+01	 5.385E+02	 7.900E+02	 7.920E+02	 2.651E+01	 1.041E+03	 4.104E+02	 1.563E+02	 2.035E+01	 1.833E+02	 1.264E+01	-2.067E+03	-3.388E+02	 1.267E+04	 7.603E+02	 1.474E+03	 8.280E+00	 2.341E+01
  62.850	 2.368E+01	-6.476E-01	 5.106E-01	 6.184E+01	-7.564E+01	 5.451E+02	 9.093E+02	 7.430E+02	 2.162E+01	 1.045E+03	 5.358E+02	 1.454E+02	 2.045E+01	 1.667E+02	 1.474E+01	-2.043E+03	-3.779E+02	 1.226E+04	 4.183E+02	 1.496E+03	 8.361E+00	 2.360E+01
  62.900	 2.536E+01	-7.371E-01	-3.139E-01	 7.760E+01	-1.007E+02	 5.496E+02	 1.070E+03	 8.639E+02	 2.925E+01	 1.221E+03	 6.314E+02	 1.748E+02	 2.052E+01	 1.660E+02	 9.603E+00	-2.025E+03	-2.807E+02	 1.223E+04	 2.389E+02	 1.504E+03	 8.377E+00	 2.374E+01
  62.950	 2.521E+01	-1.435E-01	-5.260E-02	 7.715E+01	-1.024E+02	 5.552E+02	 1.178E+03	 9.450E+02	 2.591E+01	 1.340E+03	 6.955E+02	 1.679E+02	 2.055E+01	 1.743E+02	 1.257E+01	-2.025E+03	-3.390E+02	 1.249E+04	 1.080E+02	 1.507E+03	 8.377E+00	 2.383E+01
  63.000	 2.409E+01	-3.899E-01	-9.938E-01	 8.428E+01	-1.139E+02	 5.600E+02	 1.341E+03	 1.083E+03	 2.703E+01	 1.533E+03	 7.880E+02	 1.604E+02	 2.055E+01	 1.848E+02	 1.241E+01	-2.036E+03	-3.481E+02	 1.286E+04	 2.150E+02	 1.507E+03	 8.377E+00	 2.385E+01
  63.050	 2.417E+01	-1.020E+00	-7.970E-01	 9.019E+01	-1.238E+02	 5.639E+02	 1.468E+03	 1.197E+03	 2.276E+01	 1.688E+03	 8.606E+02	 1.633E+02	 2.051E+01	 1.910E+02	 1.057E+01	-2.038E+03	-3.382E+02	 1.309E+04	 2.248E+02	 1.503E+03	 8.377E+00	 2.379E+01
  63.100	 2.371E+01	-5.184E-01	-6.811E-01	 9.704E+01	-1.263E+02	 5.681E+02	 1.589E+03	 1.341E+03	 2.360E+01	 1.866E+03	 9.168E+02	 1.693E+02	 2.044E+01	 1.777E+02	 1.203E+01	-2.035E+03	-4.095E+02	 1.287E+04	 3.458E+02	 1.497E+03	 8.364E+00	 2.368E+01
  63.150	 2.414E+01	-7.686E-01	-1.651E+00	 1.043E+02	-1.365E+02	 5.707E+02	 1.744E+03	 1.444E+03	 2.374E+01	 2.021E+03	 1.021E+03	 1.585E+02	 2.039E+01	 1.631E+02	 1.230E+01	-2.045E+03	-4.762E+02	 1.262E+04	 5.145E+02	 1.484E+03	 8.317E+00	 2.356E+01
  63.200	 2.328E+01	-2.237E-01	 8.498E-02	 1.114E+02	-1.392E+02	 5.760E+02	 1.793E+03	 1.536E+03	 2.768E+01	 2.125E+03	 1.030E+03	 1.749E+02	 2.040E+01	 1.576E+02	 1.530E+01	-2.045E+03	-6.066E+02	 1.268E+04	 4.823E+02	 1.485E+03	 8.322E+00	 2.356E+01
  63.250	 2.403E+01	-7.084E-01	 5.229E-01	 1.076E+02	-1.411E+02	 5.809E+02	 1.810E+03	 1.487E+03	 2.419E+01	 2.087E+03	 1.063E+03	 1.638E+02	 2.044E+01	 1.708E+02	 1.821E+01	-2.047E+03	-7.518E+02	 1.326E+04	 3.715E+02	 1.492E+03	 8.347E+00	 2.360E+01
  63.300	 2.345E+01	-9.691E-01	 2.929E-01	 1.056E+02	-1.311E+02	 5.860E+02	 1.780E+03	 1.516E+03	 2.605E+01	 2.104E+03	 1.020E+03	 1.757E+02	 2.052E+01	 2.014E+02	 1.994E+01	-2.022E+03	-8.856E+02	 1.422E+04	 2.724E+02	 1.504E+03	 8.377E+00	 2.371E+01
  63.350	 2.322E+01	-1.936E+00	 2.110E-02	 1.119E+02	-1.479E+02	 5.912E+02	 1.847E+03	 1.523E+03	 2.815E+01	 2.140E+03	 1.072E+03	 1.568E+02	 2.063E+01	 2.133E+02	 2.193E+01	-2.048E+03	-1.027E+03	 1.474E+04	 4.230E+02	 1.512E+03	 8.377E+00	 2.389E+01
  63.400	 2.342E+01	-1.949E-01	 5.492E-01	 1.144E+02	-1.366E+02	 5.948E+02	 1.805E+03	 1.622E+03	 3.598E+01	 2.216E+03	 9.886E+02	 1.619E+02	 2.068E+01	 2.113E+02	 2.549E+01	-2.037E+03	-1.169E+03	 1.481E+04	 6.882E+02	 1.515E+03	 8.377E+00	 2.402E+01
  63.450	 2.386E+01	-2.723E-01	 6.672E-01	 1.041E+02	-1.331E+02	 6.014E+02	 1.709E+03	 1.518E+03	 2.682E+01	 2.083E+03	 9.424E+02	 1.447E+02	 2.067E+01	 1.921E+02	 2.569E+01	-2.033E+03	-1.199E+03	 1.442E+04	 7.936E+02	 1.515E+03	 8.377E+00	 2.404E+01
  63.500	 2.261E+01	-4.072E-01	-3.633E-01	 1.216E+02	-1.474E+02	 6.077E+02	 1.747E+03	 1.691E+03	 3.652E+01	 2.256E+03	 9.075E+02	 1.687E+02	 2.066E+01	 1.666E+02	 1.902E+01	-2.038E+03	-1.059E+03	 1.392E+04	 9.546E+02	 1.513E+03	 8.377E+00	 2.402E+01
  63.550	 2.333E+01	 1.506E-01	-4.209E-01	 1.029E+02	-1.268E+02	 6.127E+02	 1.696E+03	 1.621E+03	 2.184E+01	 2.169E+03	 8.938E+02	 1.257E+02	 2.058E+01	 1.661E+02	 1.530E+01	-2.029E+03	-9.553E+02	 1.408E+04	 1.115E+03	 1.510E+03	 8.377E+00	 2.391E+01
  63.600	 2.451E+01	 1.515E-01	-7.866E-01	 1.221E+02	-1.364E+02	 6.158E+02	 1.740E+03	 1.815E+03	 3.259E+01	 2.363E+03	 8.598E+02	 1.319E+02	 2.051E+01	 1.870E+02	 1.470E+01	-2.071E+03	-9.055E+02	 1.484E+04	 1.433E+03	 1.505E+03	 8.377E+00	 2.380E+01
  63.650	 2.533E+01	 1.333E+00	-1.181E+00	 1.312E+02	-1.323E+02	 6.207E+02	 1.663E+03	 1.924E+03	 3.672E+01	 2.431E+03	 7.463E+02	 1.476E+02	 2.050E+01	 2.205E+02	 1.906E+01	-2.082E+03	-9.673E+02	 1.589E+04	 1.305E+03	 1.503E+03	 8.377E+00	 2.379E+01
  63.700	 2.527E+01	 1.693E+00	-9.288E-01	 1.358E+02	-1.274E+02	 6.258E+02	 1.604E+03	 2.016E+03	 3.961E+01	 2.492E+03	 6.514E+02	 1.621E+02	 2.055E+01	 2.481E+02	 2.082E+01	-2.079E+03	-9.999E+02	 1.671E+04	 1.197E+03	 1.507E+03	 8.377E+00	 2.386E+01
  63.750	 2.489E+01	 1.419E+00	-9.314E-01	 1.307E+02	-1.108E+02	 6.306E+02	 1.533E+03	 2.078E+03	 3.590E+01	 2.521E+03	 5.576E+02	 1.547E+02	 2.066E+01	 2.488E+02	 2.465E+01	-2.079E+03	-1.073E+03	 1.679E+04	 1.055E+03	 1.515E+03	 8.377E+00	 2.396E+01
  63.800	 2.556E+01	 5.788E-01	-8.006E-01	 1.380E+02	-1.102E+02	 6.330E+02	 1.447E+03	 2.172E+03	 3.768E+01	 2.574E+03	 4.304E+02	 1.723E+02	 2.077E+01	 2.287E+02	 2.601E+01	-2.075E+03	-1.061E+03	 1.625E+04	 7.514E+02	 1.523E+03	 8.377E+00	 2.417E+01
  63.850	 2.542E+01	 3.947E-01	-3.293E-01	 1.300E+02	-9.635E+01	 6.333E+02	 1.308E+03	 2.150E+03	 3.010E+01	 2.498E+03	 3.056E+02	 1.690E+02	 2.083E+01	 2.117E+02	 2.161E+01	-2.065E+03	-8.899E+02	 1.572E+04	 4.897E+02	 1.528E+03	 8.377E+00	 2.434E+01
  63.900	 2.483E+01	 5.238E-01	-2.116E+00	 1.426E+02	-1.040E+02	 6.327E+02	 1.219E+03	 2.218E+03	 4.046E+01	 2.523E+03	 1.925E+02	 1.900E+02	 2.088E+01	 2.058E+02	 1.337E+01	-2.052E+03	-6.204E+02	 1.547E+04	 2.432E+02	 1.531E+03	 8.377E+00	 2.443E+01
  63.950	 2.432E+01	 1.266E+00	-3.327E+00	 1.166E+02	-7.487E+01	 6.320E+02	 9.701E+02	 1.995E+03	 2.971E+01	 2.217E+03	 5.865E+01	 1.720E+02	 2.085E+01	 2.150E+02	 3.877E+00	-2.059E+03	-3.667E+02	 1.557E+04	 1.535E+02	 1.529E+03	 8.377E+00	 2.442E+01
  64.000	 2.419E+01	 1.793E+00	-3.247E+00	 1.271E+02	-8.439E+01	 6.307E+02	 8.534E+02	 1.976E+03	 4.095E+01	 2.152E+03	-3.741E+01	 1.738E+02	 2.079E+01	 2.162E+02	 6.250E+00	-2.041E+03	-3.982E+02	 1.551E+04	-6.402E+01	 1.524E+03	 8.377E+00	 2.436E+01
  64.050	 2.385E+01	 1.734E+00	-2.778E+00	 1.170E+02	-6.887E+01	 6.289E+02	 6.206E+02	 1.827E+03	 3.493E+01	 1.921E+03	-1.848E+02	 1.714E+02	 2.072E+01	 2.139E+02	 1.128E+01	-2.050E+03	-5.571E+02	 1.530E+04	 2.823E+01	 1.520E+03	 8.377E+00	 2.426E+01
  64.100	 2.510E+01	 8.798E-01	-1.690E+00	 1.164E+02	-6.066E+01	 6.253E+02	 4.390E+02	 1.743E+03	 3.570E+01	 1.770E+03	-3.125E+02	 1.815E+02	 2.067E+01	 2.030E+02	 1.671E+01	-2.041E+03	-7.627E+02	 1.486E+04	-2.049E+01	 1.515E+03	 8.377E+00	 2.415E+01
  64.150	 2.549E+01	 6.399E-01	-2.095E+00	 1.040E+02	-4.643E+01	 6.207E+02	 2.311E+02	 1.517E+03	 3.283E+01	 1.479E+03	-4.085E+02	 1.644E+02	 2.064E+01	 1.872E+02	 2.424E+01	-2.037E+03	-1.011E+03	 1.431E+04	 5.565E+01	 1.512E+03	 8.377E+00	 2.410E+01
  64.200	 2.538E+01	 9.180E-01	-1.577E+00	 9.880E+01	-4.296E+01	 6.155E+02	 9.628E+01	 1.342E+03	 3.156E+01	 1.265E+03	-4.595E+02	 1.441E+02	 2.062E+01	 1.750E+02	 2.490E+01	-2.029E+03	-1.105E+03	 1.387E+04	-1.800E+01	 1.512E+03	 8.377E+00	 2.407E+01
  64.250	 2.380E+01	 7.097E-01	-2.294E+00	 8.355E+01	-2.068E+01	 6.118E+02	-1.218E+02	 1.150E+03	 2.817E+01	 1.000E+03	-5.801E+02	 1.304E+02	 2.062E+01	 1.776E+02	 2.032E+01	-2.023E+03	-1.080E+03	 1.376E+04	 7.942E+01	 1.511E+03	 8.377E+00	 2.406E+01
  64.300	 2.391E+01	 1.558E+00	-1.328E+00	 7.319E+01	-5.547E+00	 6.086E+02	-3.462E+02	 9.606E+02	 2.499E+01	 7.360E+02	-7.078E+02	 1.207E+02	 2.063E+01	 1.876E+02	 1.683E+01	-2.024E+03	-1.077E+03	 1.379E+04	 8.507E+01	 1.512E+03	 8.377E+00	 2.406E+01
  64.350	 2.408E+01	 1.063E+00	-9.700E-01	 6.259E+01	 3.200E+00	 6.068E+02	-5.478E+02	 7.686E+02	 1.908E+01	 4.779E+02	-8.140E+02	 9.957E+01	 2.066E+01	 1.917E+02	 1.892E+01	-2.005E+03	-1.209E+03	 1.361E+04	 1.254E+02	 1.514E+03	 8.377E+00	 2.410E+01
  64.400	 2.411E+01	 9.662E-01	-1.221E+00	 7.389E+01	 5.869E+00	 6.019E+02	-6.837E+02	 8.190E+02	 2.559E+01	 4.673E+02	-9.591E+02	 1.154E+02	 2.069E+01	 1.728E+02	 2.737E+01	-2.014E+03	-1.473E+03	 1.283E+04	 1.199E+02	 1.516E+03	 8.377E+00	 2.417E+01
  64.450	 2.455E+01	 8.678E-01	 2.868E-01	 5.696E+01	 3.001E+01	 5.985E+02	-9.169E+02	 6.794E+02	 1.854E+01	 2.432E+02	-1.115E+03	 9.206E+01	 2.070E+01	 1.543E+02	 3.827E+01	-2.016E+03	-1.756E+03	 1.195E+04	 1.811E+02	 1.518E+03	 8.377E+00	 2.424E+01
  64.500	 2.365E+01	-3.399E-01	 5.881E-01	 4.801E+01	 4.413E+01	 5.942E+02	-1.122E+03	 5.710E+02	 1.149E+01	 5.952E+01	-1.257E+03	 9.320E+01	 2.071E+01	 1.352E+02	 4.156E+01	-2.032E+03	-1.806E+03	 1.105E+04	 3.814E+02	 1.518E+03	 8.377E+00	 2.426E+01
  64.550	 2.447E+01	-7.981E-01	-4.698E-02	 5.625E+01	 3.893E+01	 5.908E+02	-1.243E+03	 5.924E+02	 1.756E+01	 2.833E+01	-1.377E+03	 1.040E+02	 2.071E+01	 1.290E+02	 3.576E+01	-2.029E+03	-1.582E+03	 1.050E+04	 4.502E+02	 1.517E+03	 8.377E+00	 2.430E+01
  64.600	 2.412E+01	 4.060E-01	 2.137E-01	 4.613E+01	 4.833E+01	 5.867E+02	-1.406E+03	 4.934E+02	 6.948E+00	-1.279E+02	-1.485E+03	 1.051E+02	 2.069E+01	 1.346E+02	 2.273E+01	-2.052E+03	-1.150E+03	 1.027E+04	 6.803E+02	 1.515E+03	 8.377E+00	 2.425E+01
  64.650	 2.438E+01	 3.442E-01	-2.639E-01	 7.132E+01	 3.374E+01	 5.844E+02	-1.417E+03	 7.300E+02	 1.667E+01	 8.418E+01	-1.592E+03	 1.264E+02	 2.067E+01	 1.458E+02	 1.411E+01	-2.035E+03	-7.940E+02	 1.019E+04	 4.945E+02	 1.514E+03	 8.377E+00	 2.422E+01
  64.700	 2.347E+01	 5.667E-01	-1.360E+00	 5.773E+01	 5.127E+01	 5.814E+02	-1.575E+03	 6.727E+02	 4.822E+00	-3.255E+01	-1.712E+03	 1.304E+02	 2.069E+01	 1.481E+02	 1.039E+01	-2.067E+03	-5.759E+02	 9.909E+03	 6.616E+02	 1.515E+03	 8.377E+00	 2.422E+01
  64.750	 2.308E+01	-5.198E-01	-9.048E-01	 6.944E+01	 4.664E+01	 5.757E+02	-1.522E+03	 8.583E+02	 8.205E+00	 1.577E+02	-1.740E+03	 1.326E+02	 2.068E+01	 1.408E+02	 1.175E+01	-2.057E+03	-4.836E+02	 9.401E+03	 3.266E+02	 1.515E+03	 8.377E+00	 2.424E+01
  64.800	 2.307E+01	 9.460E-02	-8.357E-01	 6.023E+01	 4.694E+01	 5.702E+02	-1.585E+03	 7.752E+02	-1.083E+00	 5.756E+01	-1.763E+03	 1.156E+02	 2.065E+01	 1.306E+02	 1.641E+01	-2.053E+03	-4.433E+02	 8.805E+03	 2.436E+02	 1.515E+03	 8.377E+00	 2.420E+01
  64.850	 2.334E+01	-5.588E-01	-9.013E-01	 7.261E+01	 3.652E+01	 5.673E+02	-1.562E+03	 8.673E+02	 3.223E+00	 1.512E+02	-1.780E+03	 1.261E+02	 2.064E+01	 1.238E+02	 1.461E+01	-2.038E+03	-2.407E+02	 8.282E+03	 9.003E+01	 1.514E+03	 8.377E+00	 2.419E+01
  64.900	 2.353E+01	-9.060E-02	-1.839E-01	 7.162E+01	 4.362E+01	 5.638E+02	-1.575E+03	 9.173E+02	 5.265E+00	 1.932E+02	-1.812E+03	 1.448E+02	 2.060E+01	 1.124E+02	 5.102E+00	-2.057E+03	 1.379E+02	 7.718E+03	-6.249E+01	 1.511E+03	 8.377E+00	 2.413E+01
  64.950	 2.265E+01	-5.684E-01	-1.016E-01	 6.183E+01	 4.176E+01	 5.591E+02	-1.494E+03	 8.359E+02	-1.531E+00	 1.534E+02	-1.705E+03	 1.104E+02	 2.057E+01	 1.060E+02	-2.365E+00	-2.041E+03	 4.572E+02	 7.348E+03	-3.374E+02	 1.508E+03	 8.377E+00	 2.409E+01
  65.000	 2.294E+01	 3.536E-01	-7.870E-01	 6.937E+01	 3.260E+01	 5.561E+02	-1.387E+03	 8.712E+02	 6.131E+00	 2.317E+02	-1.621E+03	 1.206E+02	 2.053E+01	 1.062E+02	-8.218E+00	-2.032E+03	 6.748E+02	 7.163E+03	-5.280E+02	 1.506E+03	 8.377E+00	 2.401E+01
  65.050	 2.430E+01	-8.376E-02	-1.270E+00	 5.974E+01	 4.031E+01	 5.527E+02	-1.286E+03	 8.380E+02	 4.444E+00	 2.435E+02	-1.515E+03	 1.045E+02	 2.050E+01	 1.105E+02	-4.378E+00	-2.050E+03	 6.191E+02	 7.109E+03	-4.806E+02	 1.504E+03	 8.377E+00	 2.397E+01
  65.100	 2.459E+01	-1.746E-01	-1.252E+00	 7.354E+01	 1.775E+01	 5.497E+02	-1.083E+03	 8.928E+02	 1.373E+01	 3.764E+02	-1.352E+03	 1.151E+02	 2.049E+01	 1.123E+02	 2.125E+00	-2.017E+03	 4.426E+02	 6.983E+03	-6.062E+02	 1.502E+03	 8.377E+00	 2.394E+01
  65.150	 2.313E+01	-1.306E+00	-2.310E+00	 6.037E+01	 2.319E+01	 5.466E+02	-9.196E+02	 7.815E+02	 1.047E+01	 3.402E+02	-1.158E+03	 9.428E+01	 2.052E+01	 9.851E+01	 9.018E+00	-2.024E+03	 2.346E+02	 6.541E+03	-4.001E+02	 1.504E+03	 8.377E+00	 2.398E+01
  65.200	 2.350E+01	-8.505E-01	-1.677E+00	 5.922E+01	 1.521E+01	 5.446E+02	-7.793E+02	 7.346E+02	 1.195E+01	 3.528E+02	-1.011E+03	 1.099E+02	 2.057E+01	 8.245E+01	 1.141E+01	-2.018E+03	 1.420E+02	 6.072E+03	-2.970E+02	 1.507E+03	 8.377E+00	 2.407E+01
  65.250	 2.448E+01	-1.342E+00	-1.443E+00	 6.273E+01	 1.153E-02	 5.435E+02	-5.732E+02	 6.889E+02	 1.900E+01	 3.944E+02	-8.047E+02	 1.123E+02	 2.062E+01	 7.455E+01	 8.514E+00	-2.014E+03	 1.845E+02	 5.862E+03	-5.675E+01	 1.511E+03	 8.377E+00	 2.413E+01
  65.300	 2.461E+01	-9.903E-01	-1.498E+00	 5.467E+01	-1.008E+01	 5.418E+02	-4.458E+02	 5.350E+02	 1.475E+01	 3.055E+02	-6.258E+02	 1.168E+02	 2.063E+01	 7.380E+01	 1.618E+00	-2.003E+03	 3.296E+02	 5.964E+03	 3.269E+01	 1.512E+03	 8.377E+00	 2.418E+01
  65.350	 2.510E+01	-2.753E-01	 2.624E-02	 3.989E+01	-1.053E+01	 5.403E+02	-2.649E+02	 3.876E+02	 9.950E+00	 2.450E+02	-4.005E+02	 8.619E+01	 2.063E+01	 9.110E+01	-1.873E+00	-2.007E+03	 3.918E+02	 6.595E+03	 2.957E+02	 1.512E+03	 8.377E+00	 2.420E+01
  65.400	 2.433E+01	-2.454E+00	 3.024E-02	 4.361E+01	-2.540E+01	 5.379E+02	-1.041E+02	 3.741E+02	 1.236E+01	 2.986E+02	-2.482E+02	 9.155E+01	 2.059E+01	 1.117E+02	 1.620E+00	-2.034E+03	 2.792E+02	 7.351E+03	 7.123E+02	 1.511E+03	 8.377E+00	 2.418E+01
  65.450	 2.452E+01	-3.104E+00	-2.909E-01	 3.514E+01	-2.381E+01	 5.347E+02	 5.444E+01	 2.951E+02	 9.393E+00	 2.916E+02	-7.080E+01	 8.522E+01	 2.055E+01	 1.252E+02	 8.028E+00	-2.032E+03	 7.497E+01	 7.943E+03	 5.791E+02	 1.507E+03	 8.377E+00	 2.410E+01
  65.500	 2.483E+01	-3.195E+00	 6.002E-02	 3.738E+01	-3.637E+01	 5.342E+02	 1.904E+02	 2.509E+02	 1.853E+01	 3.066E+02	 7.179E+01	 1.040E+02	 2.051E+01	 1.272E+02	 1.302E+01	-2.031E+03	-1.080E+02	 8.242E+03	 7.490E+02	 1.505E+03	 8.377E+00	 2.402E+01
  65.550	 2.421E+01	-2.235E+00	 9.600E-02	 3.554E+01	-4.527E+01	 5.350E+02	 2.764E+02	 1.795E+02	 1.750E+01	 2.765E+02	 1.795E+02	 1.207E+02	 2.049E+01	 1.268E+02	 1.639E+01	-2.034E+03	-2.340E+02	 8.487E+03	 4.530E+02	 1.502E+03	 8.377E+00	 2.401E+01
  65.600	 2.387E+01	-2.112E+00	 1.991E-01	 3.866E+01	-4.850E+01	 5.362E+02	 4.468E+02	 2.538E+02	 2.215E+01	 4.136E+02	 3.049E+02	 1.257E+02	 2.050E+01	 1.365E+02	 1.305E+01	-2.033E+03	-2.037E+02	 8.952E+03	 1.351E+02	 1.502E+03	 8.377E+00	 2.400E+01
  65.650	 2.452E+01	-2.972E+00	 2.729E-01	 4.252E+01	-6.124E+01	 5.378E+02	 5.785E+02	 3.218E+02	 1.917E+01	 5.294E+02	 3.973E+02	 1.377E+02	 2.054E+01	 1.436E+02	 8.577E+00	-2.027E+03	-1.484E+02	 9.375E+03	-1.712E+01	 1.505E+03	 8.377E+00	 2.403E+01
  65.700	 2.548E+01	-2.060E+00	 3.609E-01	 5.347E+01	-6.985E+01	 5.397E+02	 7.303E+02	 4.838E+02	 2.347E+01	 7.403E+02	 4.683E+02	 1.483E+02	 2.060E+01	 1.505E+02	 1.055E+01	-2.025E+03	-2.429E+02	 9.780E+03	-1.561E+02	 1.510E+03	 8.377E+00	 2.416E+01
  65.750	 2.544E+01	-2.008E+00	-9.804E-01	 5.206E+01	-6.878E+01	 5.420E+02	 7.993E+02	 5.537E+02	 1.730E+01	 8.328E+02	 5.019E+02	 1.577E+02	 2.066E+01	 1.441E+02	 1.391E+01	-2.017E+03	-3.906E+02	 9.887E+03	-4.552E+02	 1.515E+03	 8.377E+00	 2.422E+01
  65.800	 2.467E+01	-1.443E+00	 2.919E-02	 6.978E+01	-9.531E+01	 5.447E+02	 9.063E+02	 6.746E+02	 2.057E+01	 9.885E+02	 5.471E+02	 1.701E+02	 2.072E+01	 1.291E+02	 2.198E+01	-2.051E+03	-6.339E+02	 9.857E+03	-4.419E+02	 1.517E+03	 8.377E+00	 2.437E+01
  65.850	 2.527E+01	-1.910E+00	 4.423E-01	 6.784E+01	-9.398E+01	 5.463E+02	 9.656E+02	 6.982E+02	 2.029E+01	 1.035E+03	 5.910E+02	 1.624E+02	 2.071E+01	 1.323E+02	 2.291E+01	-2.022E+03	-7.066E+02	 1.028E+04	-5.863E+02	 1.517E+03	 8.377E+00	 2.440E+01
  65.900	 2.500E+01	-2.181E+00	-3.254E-01	 6.693E+01	-9.832E+01	 5.490E+02	 1.046E+03	 7.041E+02	 1.975E+01	 1.072E+03	 6.642E+02	 1.482E+02	 2.063E+01	 1.399E+02	 1.796E+01	-2.020E+03	-6.148E+02	 1.094E+04	-5.557E+02	 1.512E+03	 8.377E+00	 2.428E+01
  65.950	 2.406E+01	-1.562E+00	-8.045E-02	 7.095E+01	-1.089E+02	 5.528E+02	 1.156E+03	 7.041E+02	 2.304E+01	 1.115E+03	 7.679E+02	 1.319E+02	 2.053E+01	 1.542E+02	 1.085E+01	-2.036E+03	-4.610E+02	 1.184E+04	-4.426E+02	 1.505E+03	 8.377E+00	 2.410E+01
  66.000	 2.403E+01	-1.440E+00	-3.901E-01	 7.584E+01	-1.182E+02	 5.586E+02	 1.205E+03	 7.119E+02	 2.744E+01	 1.141E+03	 8.106E+02	 1.413E+02	 2.047E+01	 1.739E+02	 4.623E+00	-2.038E+03	-3.646E+02	 1.288E+04	-4.809E+02	 1.499E+03	 8.372E+00	 2.403E+01
  66.050	 2.451E+01	-7.744E-01	-7.458E-01	 5.351E+01	-9.429E+01	 5.664E+02	 1.172E+03	 5.810E+02	 1.613E+01	 1.006E+03	 8.352E+02	 1.089E+02	 2.044E+01	 1.839E+02	 9.885E+00	-2.012E+03	-5.690E+02	 1.370E+04	-5.071E+02	 1.499E+03	 8.371E+00	 2.394E+01
  66.100	 2.475E+01	 3.822E-01	-3.134E-01	 7.256E+01	-1.123E+02	 5.750E+02	 1.202E+03	 7.089E+02	 2.771E+01	 1.136E+03	 8.109E+02	 1.375E+02	 2.046E+01	 1.940E+02	 2.239E+01	-2.018E+03	-9.737E+02	 1.444E+04	-3.903E+02	 1.501E+03	 8.377E+00	 2.396E+01
  66.150	 2.430E+01	 8.977E-01	 2.245E-01	 6.634E+01	-1.029E+02	 5.830E+02	 1.202E+03	 7.307E+02	 2.221E+01	 1.157E+03	 7.996E+02	 1.235E+02	 2.052E+01	 2.000E+02	 3.248E+01	-2.006E+03	-1.334E+03	 1.504E+04	-2.850E+02	 1.504E+03	 8.377E+00	 2.406E+01
  66.200	 2.446E+01	 1.035E+00	-2.772E-01	 8.585E+01	-1.092E+02	 5.914E+02	 1.259E+03	 9.923E+02	 3.485E+01	 1.421E+03	 7.416E+02	 1.529E+02	 2.060E+01	 2.009E+02	 3.490E+01	-2.005E+03	-1.489E+03	 1.545E+04	-4.809E+01	 1.510E+03	 8.377E+00	 2.419E+01
  66.250	 2.407E+01	 1.902E+00	 1.739E-01	 1.038E+02	-1.220E+02	 6.011E+02	 1.317E+03	 1.260E+03	 3.556E+01	 1.690E+03	 6.820E+02	 1.744E+02	 2.070E+01	 1.919E+02	 3.208E+01	-2.007E+03	-1.463E+03	 1.564E+04	 1.811E+02	 1.516E+03	 8.377E+00	 2.429E+01
  66.300	 2.519E+01	 2.119E+00	-2.134E-01	 9.653E+01	-1.103E+02	 6.061E+02	 1.284E+03	 1.339E+03	 2.431E+01	 1.750E+03	 6.137E+02	 1.657E+02	 2.078E+01	 1.989E+02	 2.541E+01	-1.992E+03	-1.315E+03	 1.618E+04	 3.788E+02	 1.522E+03	 8.377E+00	 2.448E+01
  66.350	 2.430E+01	 2.325E+00	 3.224E-02	 1.149E+02	-1.232E+02	 6.121E+02	 1.377E+03	 1.605E+03	 2.831E+01	 2.033E+03	 5.837E+02	 1.695E+02	 2.083E+01	 2.067E+02	 2.309E+01	-2.015E+03	-1.224E+03	 1.683E+04	 6.387E+02	 1.527E+03	 8.377E+00	 2.460E+01
  66.400	 2.557E+01	 2.542E+00	-1.007E-02	 1.162E+02	-1.163E+02	 6.167E+02	 1.337E+03	 1.699E+03	 2.527E+01	 2.102E+03	 5.077E+02	 1.746E+02	 2.080E+01	 2.329E+02	 2.278E+01	-2.010E+03	-1.168E+03	 1.791E+04	 6.096E+02	 1.526E+03	 8.377E+00	 2.463E+01
  66.450	 2.642E+01	 2.925E+00	-1.366E-02	 1.394E+02	-1.394E+02	 6.208E+02	 1.437E+03	 1.882E+03	 3.757E+01	 2.309E+03	 5.262E+02	 1.892E+02	 2.075E+01	 2.535E+02	 2.422E+01	-2.042E+03	-1.148E+03	 1.887E+04	 7.405E+02	 1.521E+03	 8.377E+00	 2.452E+01
  66.500	 2.561E+01	 3.100E+00	 5.198E-01	 1.327E+02	-1.346E+02	 6.242E+02	 1.443E+03	 1.827E+03	 3.332E+01	 2.261E+03	 5.565E+02	 1.866E+02	 2.067E+01	 2.756E+02	 2.021E+01	-2.046E+03	-1.032E+03	 1.974E+04	 6.140E+02	 1.513E+03	 8.377E+00	 2.448E+01
  66.550	 2.683E+01	 3.781E+00	-6.028E-02	 1.257E+02	-1.258E+02	 6.278E+02	 1.473E+03	 1.765E+03	 3.341E+01	 2.215E+03	 6.159E+02	 1.709E+02	 2.057E+01	 2.814E+02	 1.868E+01	-2.047E+03	-9.600E+02	 2.011E+04	 4.435E+02	 1.506E+03	 8.377E+00	 2.432E+01
  66.600	 2.700E+01	 3.130E+00	 1.345E-01	 1.104E+02	-1.119E+02	 6.309E+02	 1.367E+03	 1.572E+03	 3.013E+01	 1.993E+03	 6.048E+02	 1.704E+02	 2.049E+01	 2.858E+02	 1.466E+01	-2.049E+03	-8.481E+02	 2.026E+04	 1.893E+02	 1.502E+03	 8.377E+00	 2.412E+01
  66.650	 2.613E+01	 2.103E+00	 7.497E-01	 1.130E+02	-1.085E+02	 6.340E+02	 1.378E+03	 1.578E+03	 3.543E+01	 2.003E+03	 6.141E+02	 1.745E+02	 2.050E+01	 2.707E+02	 1.551E+01	-2.054E+03	-8.569E+02	 1.987E+04	 2.848E+01	 1.503E+03	 8.377E+00	 2.410E+01
  66.700	 2.625E+01	 2.175E+00	-1.492E-01	 1.043E+02	-1.060E+02	 6.375E+02	 1.283E+03	 1.432E+03	 3.092E+01	 1.832E+03	 5.850E+02	 1.714E+02	 2.053E+01	 2.622E+02	 1.862E+01	-2.042E+03	-9.331E+02	 1.952E+04	-5.554E+02	 1.505E+03	 8.377E+00	 2.414E+01
  66.750	 2.705E+01	 2.170E+00	 1.329E+00	 1.089E+02	-1.007E+02	 6.391E+02	 1.280E+03	 1.505E+03	 3.352E+01	 1.897E+03	 5.515E+02	 1.705E+02	 2.060E+01	 2.541E+02	 2.349E+01	-2.033E+03	-1.051E+03	 1.913E+04	-6.533E+02	 1.511E+03	 8.377E+00	 2.419E+01
  66.800	 2.676E+01	 2.452E+00	-9.184E-02	 1.113E+02	-1.011E+02	 6.396E+02	 1.179E+03	 1.512E+03	 3.109E+01	 1.864E+03	 4.488E+02	 1.841E+02	 2.073E+01	 2.528E+02	 2.415E+01	-2.047E+03	-1.090E+03	 1.883E+04	-6.341E+02	 1.520E+03	 8.377E+00	 2.439E+01
  66.850	 2.663E+01	 2.729E+00	 1.684E-02	 1.067E+02	-9.390E+01	 6.374E+02	 1.077E+03	 1.492E+03	 3.067E+01	 1.805E+03	 3.582E+02	 1.721E+02	 2.082E+01	 2.453E+02	 2.194E+01	-2.047E+03	-1.059E+03	 1.835E+04	-7.338E+02	 1.527E+03	 8.377E+00	 2.459E+01
  66.900	 2.706E+01	 2.826E+00	-8.968E-01	 1.176E+02	-1.020E+02	 6.328E+02	 9.383E+02	 1.533E+03	 3.602E+01	 1.785E+03	 2.115E+02	 1.827E+02	 2.086E+01	 2.367E+02	 1.861E+01	-2.023E+03	-9.963E+02	 1.776E+04	-9.914E+02	 1.529E+03	 8.377E+00	 2.471E+01
  66.950	 2.758E+01	 2.739E+00	 2.489E-01	 1.097E+02	-8.437E+01	 6.273E+02	 7.366E+02	 1.481E+03	 3.430E+01	 1.653E+03	 4.946E+01	 1.690E+02	 2.084E+01	 2.208E+02	 1.593E+01	-2.021E+03	-9.740E+02	 1.697E+04	-9.739E+02	 1.528E+03	 8.377E+00	 2.474E+01
  67.000	 2.788E+01	 4.109E+00	-6.316E-01	 9.785E+01	-5.938E+01	 6.227E+02	 4.939E+02	 1.408E+03	 2.844E+01	 1.486E+03	-1.394E+02	 1.647E+02	 2.080E+01	 2.041E+02	 1.468E+01	-2.022E+03	-1.050E+03	 1.613E+04	-8.347E+02	 1.525E+03	 8.377E+00	 2.469E+01
  67.050	 2.809E+01	 3.766E+00	-5.236E-01	 1.087E+02	-7.162E+01	 6.164E+02	 3.858E+02	 1.405E+03	 3.428E+01	 1.438E+03	-2.336E+02	 1.630E+02	 2.071E+01	 1.909E+02	 2.029E+01	-2.002E+03	-1.332E+03	 1.539E+04	-9.269E+02	 1.518E+03	 8.377E+00	 2.458E+01
  67.100	 2.747E+01	 3.721E+00	-5.921E-01	 1.062E+02	-6.065E+01	 6.133E+02	 2.201E+02	 1.346E+03	 3.800E+01	 1.316E+03	-3.565E+02	 1.632E+02	 2.066E+01	 1.855E+02	 2.549E+01	-2.008E+03	-1.671E+03	 1.486E+04	-7.728E+02	 1.514E+03	 8.377E+00	 2.444E+01
  67.150	 2.772E+01	 3.935E+00	-1.237E+00	 1.165E+02	-6.467E+01	 6.103E+02	 4.489E+01	 1.342E+03	 4.491E+01	 1.241E+03	-5.129E+02	 1.663E+02	 2.062E+01	 1.900E+02	 3.634E+01	-1.994E+03	-2.131E+03	 1.454E+04	-8.731E+02	 1.511E+03	 8.377E+00	 2.438E+01
  67.200	 2.702E+01	 3.745E+00	-1.513E+00	 9.060E+01	-2.612E+01	 6.099E+02	-2.826E+02	 1.134E+03	 3.283E+01	 9.153E+02	-7.267E+02	 1.463E+02	 2.066E+01	 1.861E+02	 4.391E+01	-2.011E+03	-2.516E+03	 1.403E+04	-4.948E+02	 1.515E+03	 8.377E+00	 2.445E+01
  67.250	 2.813E+01	 3.285E+00	-1.940E+00	 9.739E+01	-2.729E+01	 6.079E+02	-4.241E+02	 1.152E+03	 3.428E+01	 8.732E+02	-8.631E+02	 1.480E+02	 2.068E+01	 1.764E+02	 4.498E+01	-1.995E+03	-2.719E+03	 1.335E+04	-4.556E+02	 1.516E+03	 8.377E+00	 2.446E+01
  67.300	 2.850E+01	 2.815E+00	-1.356E+00	 9.187E+01	-7.619E+00	 6.059E+02	-6.582E+02	 1.109E+03	 3.043E+01	 7.355E+02	-1.060E+03	 1.444E+02	 2.072E+01	 1.658E+02	 4.688E+01	-2.009E+03	-2.876E+03	 1.268E+04	-3.292E+02	 1.519E+03	 8.377E+00	 2.456E+01
  67.350	 2.841E+01	 3.582E+00	-1.343E+00	 7.654E+01	 1.858E+00	 6.021E+02	-8.688E+02	 9.300E+02	 1.948E+01	 4.838E+02	-1.177E+03	 1.114E+02	 2.073E+01	 1.568E+02	 4.539E+01	-2.020E+03	-2.919E+03	 1.208E+04	-1.620E+02	 1.520E+03	 8.377E+00	 2.460E+01
  67.400	 2.812E+01	 3.402E+00	-1.460E+00	 7.076E+01	 2.003E+01	 5.981E+02	-1.096E+03	 8.923E+02	 1.533E+01	 3.546E+02	-1.368E+03	 1.161E+02	 2.072E+01	 1.505E+02	 4.531E+01	-2.061E+03	-2.959E+03	 1.160E+04	-2.115E+01	 1.521E+03	 8.377E+00	 2.461E+01
  67.450	 2.855E+01	 3.811E+00	-9.023E-01	 7.434E+01	 2.583E+01	 5.960E+02	-1.289E+03	 9.142E+02	 1.455E+01	 2.956E+02	-1.552E+03	 1.211E+02	 2.070E+01	 1.609E+02	 4.822E+01	-2.060E+03	-3.041E+03	 1.148E+04	-2.730E+01	 1.518E+03	 8.377E+00	 2.457E+01
  67.500	 2.943E+01	 3.840E+00	-4.918E-01	 7.332E+01	 4.177E+01	 5.943E+02	-1.426E+03	 9.829E+02	 1.411E+01	 3.015E+02	-1.706E+03	 1.300E+02	 2.068E+01	 1.675E+02	 4.589E+01	-2.083E+03	-3.004E+03	 1.126E+04	-6.894E+01	 1.515E+03	 8.377E+00	 2.455E+01
  67.550	 2.934E+01	 3.159E+00	-1.188E+00	 8.108E+01	 3.021E+01	 5.906E+02	-1.428E+03	 1.066E+03	 1.091E+01	 3.767E+02	-1.742E+03	 1.216E+02	 2.068E+01	 1.628E+02	 4.524E+01	-2.073E+03	-2.976E+03	 1.072E+04	-3.805E+02	 1.517E+03	 8.377E+00	 2.452E+01
  67.600	 3.035E+01	 3.043E+00	-9.940E-01	 8.241E+01	 4.460E+01	 5.875E+02	-1.511E+03	 1.194E+03	 8.272E+00	 4.592E+02	-1.870E+03	 1.341E+02	 2.068E+01	 1.495E+02	 4.679E+01	-2.087E+03	-2.960E+03	 9.894E+03	-4.964E+02	 1.516E+03	 8.377E+00	 2.452E+01
  67.650	 3.021E+01	 2.938E+00	-1.467E+00	 1.023E+02	 2.438E+01	 5.836E+02	-1.418E+03	 1.386E+03	 1.291E+01	 6.714E+02	-1.866E+03	 1.463E+02	 2.070E+01	 1.239E+02	 4.352E+01	-2.055E+03	-2.816E+03	 8.769E+03	-8.253E+02	 1.517E+03	 8.377E+00	 2.456E+01
  67.700	 3.012E+01	 2.318E+00	-2.721E+00	 1.065E+02	 2.452E+01	 5.783E+02	-1.323E+03	 1.512E+03	 1.007E+01	 8.230E+02	-1.833E+03	 1.308E+02	 2.072E+01	 1.029E+02	 4.322E+01	-2.037E+03	-2.701E+03	 7.797E+03	-1.126E+03	 1.519E+03	 8.377E+00	 2.464E+01
  67.750	 3.006E+01	 2.136E+00	-1.133E+00	 1.047E+02	 2.425E+01	 5.732E+02	-1.311E+03	 1.492E+03	 9.044E+00	 8.095E+02	-1.814E+03	 1.367E+02	 2.073E+01	 9.107E+01	 3.999E+01	-2.034E+03	-2.516E+03	 7.156E+03	-1.148E+03	 1.521E+03	 8.377E+00	 2.464E+01
  67.800	 3.036E+01	 2.498E+00	-2.042E+00	 9.775E+01	 2.371E+01	 5.697E+02	-1.255E+03	 1.388E+03	 1.077E+01	 7.384E+02	-1.720E+03	 1.261E+02	 2.072E+01	 9.177E+01	 3.468E+01	-2.034E+03	-2.297E+03	 6.939E+03	-1.088E+03	 1.520E+03	 8.377E+00	 2.466E+01
  67.850	 2.998E+01	 3.688E+00	-2.108E+00	 9.217E+01	 1.592E+01	 5.654E+02	-1.197E+03	 1.236E+03	 1.040E+01	 6.260E+02	-1.603E+03	 1.178E+02	 2.066E+01	 9.636E+01	 3.247E+01	-2.027E+03	-2.146E+03	 6.908E+03	-9.850E+02	 1.516E+03	 8.377E+00	 2.460E+01
  67.900	 2.955E+01	 4.260E+00	-1.898E+00	 9.236E+01	 1.267E+01	 5.606E+02	-1.079E+03	 1.175E+03	 2.052E+01	 6.224E+02	-1.469E+03	 1.311E+02	 2.060E+01	 9.811E+01	 2.785E+01	-2.020E+03	-1.973E+03	 6.859E+03	-9.516E+02	 1.510E+03	 8.377E+00	 2.447E+01
  67.950	 2.870E+01	 3.161E+00	-1.865E+00	 7.338E+01	 1.712E+01	 5.558E+02	-9.979E+02	 9.120E+02	 1.389E+01	 4.184E+02	-1.285E+03	 1.088E+02	 2.056E+01	 9.352E+01	 2.729E+01	-2.016E+03	-1.915E+03	 6.743E+03	-7.254E+02	 1.507E+03	 8.377E+00	 2.439E+01
  68.000	 2.948E+01	 4.989E+00	-1.010E+00	 7.798E+01	 2.675E+00	 5.526E+02	-8.404E+02	 8.214E+02	 1.893E+01	 4.016E+02	-1.104E+03	 1.180E+02	 2.055E+01	 9.251E+01	 2.637E+01	-2.011E+03	-1.898E+03	 6.749E+03	-6.115E+02	 1.507E+03	 8.377E+00	 2.436E+01
  68.050	 2.864E+01	 4.505E+00	-1.349E+00	 6.777E+01	 9.185E+00	 5.485E+02	-7.279E+02	 6.854E+02	 2.234E+01	 3.226E+02	-9.464E+02	 1.220E+02	 2.062E+01	 8.933E+01	 3.445E+01	-2.002E+03	-2.097E+03	 6.799E+03	-6.145E+02	 1.512E+03	 8.377E+00	 2.445E+01
  68.100	 2.811E+01	 4.011E+00	-2.907E+00	 4.334E+01	 1.555E+01	 5.446E+02	-6.585E+02	 3.865E+02	 1.265E+01	 7.715E+01	-7.596E+02	 1.011E+02	 2.069E+01	 8.966E+01	 4.318E+01	-2.002E+03	-2.321E+03	 7.042E+03	-6.407E+02	 1.517E+03	 8.377E+00	 2.461E+01
  68.150	 2.771E+01	 4.694E+00	-1.504E+00	 4.314E+01	-4.527E+00	 5.428E+02	-4.526E+02	 2.633E+02	 1.584E+01	 4.988E+01	-5.212E+02	 7.611E+01	 2.073E+01	 1.104E+02	 4.494E+01	-1.994E+03	-2.383E+03	 7.782E+03	-6.407E+02	 1.520E+03	 8.377E+00	 2.473E+01
  68.200	 2.800E+01	 3.816E+00	-1.479E+00	 4.254E+01	-1.595E+01	 5.396E+02	-3.011E+02	 1.767E+02	 1.994E+01	 3.456E+01	-3.474E+02	 8.968E+01	 2.072E+01	 1.298E+02	 3.724E+01	-1.996E+03	-2.209E+03	 8.513E+03	-7.091E+02	 1.520E+03	 8.377E+00	 2.472E+01
  68.250	 2.785E+01	 3.785E+00	-1.654E+00	 4.851E+01	-3.383E+01	 5.358E+02	-1.310E+02	 1.516E+02	 2.504E+01	 8.322E+01	-1.823E+02	 9.917E+01	 2.066E+01	 1.450E+02	 2.862E+01	-1.972E+03	-1.996E+03	 9.077E+03	-1.039E+03	 1.515E+03	 8.377E+00	 2.463E+01
  68.300	 2.782E+01	 3.844E+00	-1.132E+00	 4.382E+01	-3.781E+01	 5.318E+02	-2.349E+00	 1.024E+02	 2.198E+01	 9.212E+01	-4.466E+01	 9.318E+01	 2.060E+01	 1.409E+02	 2.700E+01	-1.987E+03	-1.947E+03	 9.142E+03	-1.118E+03	 1.510E+03	 8.377E+00	 2.455E+01
  68.350	 2.798E+01	 3.505E+00	-5.667E-01	 4.247E+01	-3.995E+01	 5.275E+02	 1.002E+02	 6.989E+01	 2.299E+01	 1.051E+02	 6.230E+01	 1.019E+02	 2.053E+01	 1.242E+02	 3.191E+01	-2.013E+03	-2.065E+03	 8.867E+03	-1.085E+03	 1.505E+03	 8.377E+00	 2.443E+01
  68.400	 2.764E+01	 1.953E+00	-3.181E-01	 3.274E+01	-3.928E+01	 5.247E+02	 1.499E+02	-3.572E+01	 1.819E+01	 2.923E+01	 1.513E+02	 1.026E+02	 2.048E+01	 1.108E+02	 4.054E+01	-2.004E+03	-2.269E+03	 8.671E+03	-1.241E+03	 1.501E+03	 8.377E+00	 2.434E+01
  68.450	 2.824E+01	 2.987E+00	-1.906E+00	 4.045E+01	-5.333E+01	 5.232E+02	 3.295E+02	 2.598E+01	 2.434E+01	 1.590E+02	 2.898E+02	 1.007E+02	 2.045E+01	 1.172E+02	 4.362E+01	-2.026E+03	-2.328E+03	 8.948E+03	-1.314E+03	 1.493E+03	 8.352E+00	 2.424E+01
  68.500	 2.885E+01	 2.754E+00	-1.890E+00	 4.690E+01	-6.377E+01	 5.227E+02	 4.685E+02	 9.245E+01	 3.050E+01	 2.767E+02	 3.893E+02	 9.909E+01	 2.041E+01	 1.340E+02	 4.292E+01	-2.027E+03	-2.239E+03	 9.482E+03	-1.355E+03	 1.487E+03	 8.327E+00	 2.424E+01
  68.550	 2.884E+01	 2.969E+00	-9.623E-01	 4.032E+01	-6.263E+01	 5.244E+02	 4.883E+02	 8.078E+01	 2.316E+01	 2.740E+02	 4.122E+02	 1.079E+02	 2.042E+01	 1.386E+02	 3.544E+01	-2.026E+03	-1.958E+03	 9.728E+03	-1.513E+03	 1.485E+03	 8.319E+00	 2.421E+01
  68.600	 2.803E+01	 1.415E+00	-5.763E-01	 4.876E+01	-7.907E+01	 5.253E+02	 6.252E+02	 1.668E+02	 2.509E+01	 4.081E+02	 5.022E+02	 1.156E+02	 2.043E+01	 1.395E+02	 2.317E+01	-2.016E+03	-1.569E+03	 9.791E+03	-1.480E+03	 1.487E+03	 8.326E+00	 2.416E+01
  68.650	 2.794E+01	 7.240E-01	-1.688E-01	 5.653E+01	-8.133E+01	 5.272E+02	 6.806E+02	 3.141E+02	 2.721E+01	 5.654E+02	 4.921E+02	 1.189E+02	 2.042E+01	 1.227E+02	 2.363E+01	-2.025E+03	-1.434E+03	 9.435E+03	-1.316E+03	 1.489E+03	 8.336E+00	 2.418E+01
  68.700	 2.810E+01	 1.424E+00	-4.594E-02	 5.311E+01	-7.765E+01	 5.297E+02	 7.006E+02	 3.405E+02	 2.058E+01	 5.979E+02	 4.993E+02	 1.292E+02	 2.043E+01	 1.029E+02	 2.387E+01	-2.003E+03	-1.317E+03	 9.038E+03	-1.224E+03	 1.493E+03	 8.348E+00	 2.422E+01
  68.750	 2.762E+01	 9.906E-01	-2.138E-01	 6.149E+01	-9.373E+01	 5.327E+02	 7.832E+02	 4.089E+02	 2.224E+01	 6.942E+02	 5.465E+02	 1.248E+02	 2.040E+01	 9.306E+01	 2.743E+01	-2.017E+03	-1.262E+03	 8.972E+03	-9.392E+02	 1.485E+03	 8.319E+00	 2.422E+01
  68.800	 2.756E+01	 1.806E+00	-6.634E-01	 6.350E+01	-1.002E+02	 5.353E+02	 8.436E+02	 4.215E+02	 2.462E+01	 7.297E+02	 5.975E+02	 1.273E+02	 2.037E+01	 1.074E+02	 2.251E+01	-2.007E+03	-1.016E+03	 9.583E+03	-7.713E+02	 1.477E+03	 8.291E+00	 2.414E+01
  68.850	 2.753E+01	 1.863E+00	-9.906E-01	 5.469E+01	-9.483E+01	 5.403E+02	 8.799E+02	 3.734E+02	 2.085E+01	 6.996E+02	 6.512E+02	 1.145E+02	 2.032E+01	 1.320E+02	 1.719E+01	-2.009E+03	-7.359E+02	 1.056E+04	-6.785E+02	 1.469E+03	 8.259E+00	 2.406E+01
  68.900	 2.771E+01	 1.435E+00	-4.835E-01	 6.311E+01	-1.026E+02	 5.453E+02	 9.045E+02	 4.296E+02	 2.800E+01	 7.598E+02	 6.523E+02	 1.399E+02	 2.027E+01	 1.621E+02	 9.825E+00	-2.008E+03	-4.233E+02	 1.164E+04	-6.496E+02	 1.458E+03	 8.218E+00	 2.395E+01
  68.950	 2.723E+01	 1.112E+00	-2.260E-01	 5.933E+01	-1.009E+02	 5.497E+02	 1.011E+03	 4.082E+02	 2.529E+01	 7.827E+02	 7.593E+02	 1.165E+02	 2.025E+01	 1.723E+02	 7.306E+00	-2.011E+03	-2.544E+02	 1.223E+04	-4.827E+02	 1.452E+03	 8.196E+00	 2.389E+01
  69.000	 2.778E+01	 1.172E+00	-8.248E-01	 5.620E+01	-9.757E+01	 5.547E+02	 1.045E+03	 3.956E+02	 2.175E+01	 7.850E+02	 7.952E+02	 1.184E+02	 2.025E+01	 1.678E+02	 9.336E+00	-2.004E+03	-2.312E+02	 1.239E+04	-4.794E+02	 1.455E+03	 8.207E+00	 2.390E+01
  69.050	 2.679E+01	 1.324E+00	-1.167E+00	 7.501E+01	-1.127E+02	 5.595E+02	 1.179E+03	 5.164E+02	 3.461E+01	 9.497E+02	 8.684E+02	 1.577E+02	 2.030E+01	 1.544E+02	 1.256E+01	-2.006E+03	-2.665E+02	 1.232E+04	-4.290E+02	 1.464E+03	 8.243E+00	 2.390E+01
  69.100	 2.640E+01	 1.280E+00	-1.921E+00	 6.414E+01	-1.114E+02	 5.635E+02	 1.181E+03	 3.732E+02	 2.816E+01	 8.225E+02	 9.264E+02	 1.469E+02	 2.037E+01	 1.558E+02	 1.848E+01	-2.007E+03	-3.566E+02	 1.265E+04	-5.803E+02	 1.479E+03	 8.298E+00	 2.406E+01
  69.150	 2.731E+01	 9.109E-01	-1.124E+00	 5.933E+01	-1.148E+02	 5.713E+02	 1.230E+03	 2.800E+02	 2.828E+01	 7.588E+02	 1.008E+03	 1.338E+02	 2.041E+01	 1.718E+02	 1.949E+01	-2.015E+03	-3.066E+02	 1.343E+04	-8.422E+02	 1.491E+03	 8.342E+00	 2.415E+01
  69.200	 2.694E+01	 3.702E-01	-9.302E-01	 6.285E+01	-1.236E+02	 5.777E+02	 1.213E+03	 2.120E+02	 3.491E+01	 6.899E+02	 1.020E+03	 1.530E+02	 2.042E+01	 2.094E+02	 1.173E+01	-2.017E+03	-5.170E+01	 1.470E+04	-1.188E+03	 1.491E+03	 8.343E+00	 2.417E+01
  69.250	 2.720E+01	 4.578E-01	-4.430E-02	 5.307E+01	-1.249E+02	 5.822E+02	 1.277E+03	 7.077E+01	 3.195E+01	 5.866E+02	 1.136E+03	 1.130E+02	 2.035E+01	 2.324E+02	 1.884E+00	-2.038E+03	 2.325E+02	 1.556E+04	-1.310E+03	 1.476E+03	 8.287E+00	 2.413E+01
  69.300	 2.776E+01	-3.960E-01	-1.050E+00	 5.296E+01	-1.248E+02	 5.877E+02	 1.227E+03	 1.105E+01	 3.555E+01	 5.081E+02	 1.117E+03	 1.314E+02	 2.026E+01	 2.351E+02	-4.695E+00	-2.025E+03	 3.895E+02	 1.570E+04	-1.643E+03	 1.457E+03	 8.215E+00	 2.394E+01
  69.350	 2.764E+01	-1.490E-01	-8.890E-01	 5.014E+01	-1.159E+02	 5.918E+02	 1.223E+03	 9.018E+00	 3.618E+01	 5.018E+02	 1.116E+03	 1.275E+02	 2.019E+01	 2.108E+02	-4.736E-01	-2.018E+03	 2.330E+02	 1.503E+04	-1.646E+03	 1.439E+03	 8.146E+00	 2.380E+01
  69.400	 2.685E+01	 1.587E-01	-6.492E-01	 4.149E+01	-1.084E+02	 5.954E+02	 1.180E+03	-7.084E+01	 3.145E+01	 4.094E+02	 1.109E+03	 1.087E+02	 2.014E+01	 1.745E+02	 1.231E+01	-2.018E+03	-1.733E+02	 1.401E+04	-1.665E+03	 1.431E+03	 8.116E+00	 2.370E+01
  69.450	 2.694E+01	 4.244E-01	-5.207E-02	 4.472E+01	-9.865E+01	 5.979E+02	 1.127E+03	 3.235E+01	 3.427E+01	 4.807E+02	 1.020E+03	 1.260E+02	 2.010E+01	 1.571E+02	 1.800E+01	-1.989E+03	-4.537E+02	 1.343E+04	-1.814E+03	 1.422E+03	 8.084E+00	 2.358E+01
  69.500	 2.657E+01	 2.745E-01	 3.225E-01	 3.989E+01	-9.119E+01	 5.996E+02	 1.025E+03	 3.900E+01	 2.670E+01	 4.455E+02	 9.244E+02	 1.027E+02	 2.010E+01	 1.682E+02	 2.377E+01	-2.013E+03	-7.004E+02	 1.359E+04	-1.565E+03	 1.424E+03	 8.092E+00	 2.355E+01
  69.550	 2.617E+01	 6.468E-01	 7.711E-02	 4.628E+01	-8.588E+01	 6.011E+02	 9.542E+02	 1.980E+02	 2.530E+01	 5.623E+02	 7.959E+02	 9.988E+01	 2.009E+01	 1.897E+02	 1.898E+01	-2.004E+03	-6.987E+02	 1.402E+04	-1.462E+03	 1.423E+03	 8.085E+00	 2.352E+01
  69.600	 2.644E+01	 2.283E-01	-6.665E-01	 6.628E+01	-8.663E+01	 6.019E+02	 8.803E+02	 4.937E+02	 3.033E+01	 8.044E+02	 6.095E+02	 1.200E+02	 2.012E+01	 1.995E+02	 1.530E+01	-2.014E+03	-7.158E+02	 1.410E+04	-1.246E+03	 1.431E+03	 8.118E+00	 2.356E+01
  69.650	 2.523E+01	-2.122E-01	-1.293E-01	 8.791E+01	-9.760E+01	 6.024E+02	 8.318E+02	 7.521E+02	 3.765E+01	 1.022E+03	 4.616E+02	 1.364E+02	 2.014E+01	 1.899E+02	 1.506E+01	-2.019E+03	-8.348E+02	 1.361E+04	-1.110E+03	 1.426E+03	 8.098E+00	 2.358E+01
  69.700	 2.629E+01	-6.896E-02	-5.919E-01	 7.605E+01	-6.988E+01	 6.005E+02	 6.823E+02	 8.391E+02	 2.570E+01	 1.042E+03	 2.891E+02	 1.261E+02	 2.016E+01	 1.702E+02	 1.580E+01	-1.998E+03	-1.031E+03	 1.277E+04	-9.595E+02	 1.433E+03	 8.124E+00	 2.361E+01
  69.750	 2.561E+01	-5.622E-01	-1.177E+00	 9.534E+01	-7.881E+01	 5.995E+02	 5.747E+02	 1.046E+03	 3.274E+01	 1.189E+03	 1.078E+02	 1.469E+02	 2.017E+01	 1.457E+02	 2.569E+01	-1.985E+03	-1.429E+03	 1.181E+04	-9.435E+02	 1.439E+03	 8.146E+00	 2.361E+01
  69.800	 2.518E+01	-1.176E+00	-7.387E-01	 1.036E+02	-8.050E+01	 5.980E+02	 4.544E+02	 1.151E+03	 3.440E+01	 1.237E+03	-4.444E+01	 1.536E+02	 2.018E+01	 1.289E+02	 3.241E+01	-2.008E+03	-1.754E+03	 1.109E+04	-6.997E+02	 1.437E+03	 8.141E+00	 2.360E+01
  69.850	 2.585E+01	-2.014E+00	-7.945E-01	 1.074E+02	-6.720E+01	 5.980E+02	 2.558E+02	 1.254E+03	 3.521E+01	 1.251E+03	-2.679E+02	 1.673E+02	 2.018E+01	 1.350E+02	 3.700E+01	-1.990E+03	-1.987E+03	 1.096E+04	-7.398E+02	 1.437E+03	 8.142E+00	 2.362E+01
  69.900	 2.620E+01	-3.880E-01	-1.966E+00	 9.258E+01	-4.399E+01	 5.984E+02	 3.624E+01	 1.194E+03	 2.610E+01	 1.109E+03	-4.448E+02	 1.511E+02	 2.016E+01	 1.433E+02	 3.616E+01	-2.006E+03	-2.060E+03	 1.099E+04	-4.896E+02	 1.436E+03	 8.134E+00	 2.359E+01
  69.950	 2.474E+01	-1.152E-01	-9.351E-01	 8.868E+01	-3.109E+01	 5.988E+02	-9.869E+01	 1.206E+03	 2.510E+01	 1.066E+03	-5.724E+02	 1.320E+02	 2.014E+01	 1.483E+02	 3.429E+01	-2.017E+03	-2.067E+03	 1.099E+04	-5.150E+02	 1.431E+03	 8.117E+00	 2.355E+01
  70.000	 2.501E+01	 4.301E-01	-1.410E+00	 1.011E+02	-3.074E+01	 5.993E+02	-1.377E+02	 1.373E+03	 3.058E+01	 1.204E+03	-6.741E+02	 1.340E+02	 2.013E+01	 1.452E+02	 3.215E+01	-2.024E+03	-2.057E+03	 1.084E+04	-7.033E+02	 1.432E+03	 8.122E+00	 2.351E+01
  70.050	 2.460E+01	 6.409E-01	-1.015E+00	 1.215E+02	-3.966E+01	 5.981E+02	-1.450E+02	 1.574E+03	 3.761E+01	 1.386E+03	-7.601E+02	 1.466E+02	 2.012E+01	 1.424E+02	 3.248E+01	-2.007E+03	-2.112E+03	 1.069E+04	-1.087E+03	 1.428E+03	 8.106E+00	 2.348E+01
  70.100	 2.459E+01	 1.952E-01	-1.781E+00	 1.304E+02	-4.323E+01	 5.962E+02	-2.255E+02	 1.624E+03	 3.920E+01	 1.400E+03	-8.542E+02	 1.500E+02	 2.014E+01	 1.373E+02	 3.828E+01	-2.014E+03	-2.286E+03	 1.052E+04	-1.283E+03	 1.428E+03	 8.105E+00	 2.349E+01
  70.150	 2.560E+01	 8.700E-01	-1.790E+00	 1.158E+02	-2.585E+01	 5.959E+02	-3.631E+02	 1.537E+03	 3.213E+01	 1.264E+03	-9.458E+02	 1.279E+02	 2.015E+01	 1.397E+02	 4.213E+01	-2.020E+03	-2.417E+03	 1.056E+04	-1.359E+03	 1.431E+03	 8.115E+00	 2.351E+01
  70.200	 2.610E+01	 1.343E+00	-2.690E+00	 1.126E+02	-1.047E+01	 5.933E+02	-4.437E+02	 1.571E+03	 2.993E+01	 1.265E+03	-1.033E+03	 1.192E+02	 2.013E+01	 1.437E+02	 4.231E+01	-2.023E+03	-2.435E+03	 1.064E+04	-1.550E+03	 1.427E+03	 8.103E+00	 2.346E+01
  70.250	 2.682E+01	 9.005E-01	-2.477E+00	 1.163E+02	-8.902E+00	 5.895E+02	-5.072E+02	 1.582E+03	 3.416E+01	 1.249E+03	-1.095E+03	 1.123E+02	 2.013E+01	 1.399E+02	 4.270E+01	-2.025E+03	-2.414E+03	 1.054E+04	-1.687E+03	 1.426E+03	 8.098E+00	 2.348E+01
  70.300	 2.585E+01	-2.506E-02	-1.692E+00	 1.010E+02	 9.323E+00	 5.872E+02	-6.637E+02	 1.454E+03	 2.631E+01	 1.070E+03	-1.188E+03	 1.018E+02	 2.010E+01	 1.371E+02	 4.034E+01	-2.030E+03	-2.324E+03	 1.041E+04	-1.578E+03	 1.421E+03	 8.079E+00	 2.346E+01
  70.350	 2.542E+01	 7.069E-01	-2.916E-01	 1.154E+02	-4.608E+00	 5.816E+02	-5.834E+02	 1.553E+03	 3.483E+01	 1.194E+03	-1.152E+03	 9.228E+01	 2.007E+01	 1.255E+02	 3.744E+01	-2.003E+03	-2.216E+03	 1.012E+04	-1.746E+03	 1.413E+03	 8.049E+00	 2.338E+01
  70.400	 2.576E+01	 9.467E-01	-4.293E-01	 1.182E+02	-9.969E+00	 5.784E+02	-6.194E+02	 1.528E+03	 3.880E+01	 1.160E+03	-1.173E+03	 9.865E+01	 2.003E+01	 1.302E+02	 3.340E+01	-1.991E+03	-2.102E+03	 1.018E+04	-1.652E+03	 1.403E+03	 8.012E+00	 2.326E+01
  70.450	 2.507E+01	 1.224E+00	-6.077E-01	 8.676E+01	 1.956E+01	 5.742E+02	-7.637E+02	 1.330E+03	 1.978E+01	 9.229E+02	-1.225E+03	 8.341E+01	 1.999E+01	 1.366E+02	 3.182E+01	-2.025E+03	-2.053E+03	 1.032E+04	-1.276E+03	 1.398E+03	 7.992E+00	 2.316E+01
  70.500	 2.504E+01	 1.444E+00	-2.052E-01	 1.004E+02	 1.372E+01	 5.693E+02	-6.908E+02	 1.517E+03	 2.901E+01	 1.123E+03	-1.232E+03	 9.283E+01	 2.000E+01	 1.462E+02	 3.376E+01	-2.008E+03	-2.094E+03	 1.050E+04	-1.377E+03	 1.403E+03	 8.012E+00	 2.315E+01
  70.550	 2.521E+01	 2.502E+00	 4.199E-01	 1.051E+02	 2.486E+01	 5.618E+02	-7.242E+02	 1.672E+03	 3.032E+01	 1.251E+03	-1.324E+03	 1.274E+02	 2.005E+01	 1.371E+02	 3.888E+01	-2.018E+03	-2.206E+03	 1.026E+04	-1.317E+03	 1.411E+03	 8.041E+00	 2.320E+01
  70.600	 2.621E+01	 2.584E+00	 9.307E-01	 1.180E+02	 6.478E+00	 5.569E+02	-6.595E+02	 1.784E+03	 3.419E+01	 1.378E+03	-1.311E+03	 1.394E+02	 2.012E+01	 1.405E+02	 3.870E+01	-1.991E+03	-2.210E+03	 1.021E+04	-1.291E+03	 1.424E+03	 8.091E+00	 2.330E+01
  70.650	 2.634E+01	 1.508E+00	 9.312E-01	 1.122E+02	 1.203E+01	 5.512E+02	-6.184E+02	 1.842E+03	 2.879E+01	 1.445E+03	-1.299E+03	 1.300E+02	 2.017E+01	 1.339E+02	 3.859E+01	-1.988E+03	-2.181E+03	 9.963E+03	-1.195E+03	 1.436E+03	 8.137E+00	 2.339E+01
  70.700	 2.645E+01	 1.159E+00	-1.833E-01	 1.122E+02	 4.729E+00	 5.431E+02	-6.277E+02	 1.817E+03	 2.573E+01	 1.416E+03	-1.301E+03	 1.417E+02	 2.022E+01	 1.203E+02	 3.878E+01	-1.978E+03	-2.116E+03	 9.589E+03	-1.081E+03	 1.450E+03	 8.191E+00	 2.351E+01
  70.750	 2.575E+01	 6.178E-01	 9.975E-01	 1.129E+02	 4.362E+00	 5.370E+02	-6.188E+02	 1.826E+03	 2.967E+01	 1.428E+03	-1.296E+03	 1.551E+02	 2.024E+01	 1.115E+02	 3.474E+01	-1.986E+03	-1.928E+03	 9.385E+03	-9.017E+02	 1.452E+03	 8.195E+00	 2.350E+01
  70.800	 2.566E+01	 2.495E+00	 1.666E+00	 1.084E+02	 2.463E+00	 5.305E+02	-6.368E+02	 1.707E+03	 3.119E+01	 1.312E+03	-1.264E+03	 1.535E+02	 2.018E+01	 1.061E+02	 3.530E+01	-1.991E+03	-1.778E+03	 9.377E+03	-7.120E+02	 1.442E+03	 8.157E+00	 2.348E+01
  70.850	 2.580E+01	 1.409E+00	 1.028E+00	 9.346E+01	 1.115E+01	 5.266E+02	-7.140E+02	 1.506E+03	 3.060E+01	 1.100E+03	-1.252E+03	 1.538E+02	 2.009E+01	 1.089E+02	 3.045E+01	-2.029E+03	-1.471E+03	 9.696E+03	-2.816E+02	 1.421E+03	 8.078E+00	 2.332E+01
  70.900	 2.561E+01	 5.021E-01	 1.404E+00	 9.828E+01	 2.532E+00	 5.217E+02	-6.419E+02	 1.490E+03	 3.471E+01	 1.118E+03	-1.175E+03	 1.714E+02	 2.003E+01	 1.245E+02	 2.040E+01	-2.024E+03	-1.018E+03	 1.043E+04	-3.518E+02	 1.405E+03	 8.019E+00	 2.312E+01
  70.950	 2.499E+01	-1.427E+00	 1.783E+00	 1.012E+02	-5.320E+00	 5.181E+02	-5.582E+02	 1.471E+03	 3.734E+01	 1.135E+03	-1.089E+03	 1.710E+02	 2.001E+01	 1.467E+02	 1.543E+01	-2.018E+03	-6.491E+02	 1.138E+04	-5.163E+02	 1.398E+03	 7.990E+00	 2.303E+01
  71.000	 2.536E+01	 1.132E-02	 2.215E+00	 1.021E+02	-1.989E+01	 5.173E+02	-4.443E+02	 1.401E+03	 3.759E+01	 1.114E+03	-9.580E+02	 1.549E+02	 2.004E+01	 1.631E+02	 1.179E+01	-2.013E+03	-3.162E+02	 1.219E+04	-4.668E+02	 1.405E+03	 8.020E+00	 2.309E+01
  71.050	 2.549E+01	 5.355E-01	 3.202E+00	 9.265E+01	-1.153E+01	 5.156E+02	-4.079E+02	 1.350E+03	 3.106E+01	 1.081E+03	-9.058E+02	 1.486E+02	 2.008E+01	 1.621E+02	 1.242E+01	-2.033E+03	-5.571E+01	 1.261E+04	-5.418E+02	 1.416E+03	 8.059E+00	 2.314E+01
  71.100	 2.678E+01	 1.216E+00	 1.827E+00	 1.000E+02	-2.381E+01	 5.136E+02	-2.189E+02	 1.434E+03	 3.112E+01	 1.232E+03	-7.666E+02	 1.239E+02	 2.012E+01	 1.637E+02	 9.922E+00	-2.013E+03	 2.899E+02	 1.301E+04	-7.568E+02	 1.425E+03	 8.095E+00	 2.322E+01
  71.150	 2.701E+01	 1.551E+00	 9.633E-01	 9.885E+01	-2.746E+01	 5.109E+02	-1.312E+02	 1.423E+03	 2.646E+01	 1.255E+03	-6.833E+02	 1.298E+02	 2.018E+01	 1.546E+02	 1.373E+00	-2.010E+03	 7.776E+02	 1.320E+04	-9.256E+02	 1.440E+03	 8.151E+00	 2.329E+01
  71.200	 2.640E+01	 1.334E+00	 1.115E+00	 1.076E+02	-4.131E+01	 5.073E+02	-1.305E+01	 1.447E+03	 3.049E+01	 1.323E+03	-5.869E+02	 1.503E+02	 2.023E+01	 1.574E+02	-7.991E+00	-2.012E+03	 1.286E+03	 1.369E+04	-1.014E+03	 1.451E+03	 8.194E+00	 2.340E+01
  71.250	 2.706E+01	 7.141E-01	 2.425E-01	 9.516E+01	-4.534E+01	 5.054E+02	 7.383E+00	 1.235E+03	 2.561E+01	 1.136E+03	-4.840E+02	 1.424E+02	 2.027E+01	 1.641E+02	-1.259E+01	-2.032E+03	 1.683E+03	 1.438E+04	-8.632E+02	 1.459E+03	 8.223E+00	 2.343E+01
  71.300	 2.706E+01	 1.562E+00	-4.428E-01	 8.131E+01	-4.400E+01	 5.033E+02	 4.547E+01	 1.022E+03	 2.140E+01	 9.563E+02	-3.644E+02	 1.443E+02	 2.023E+01	 1.871E+02	-1.848E+01	-2.030E+03	 2.077E+03	 1.549E+04	-9.489E+02	 1.449E+03	 8.184E+00	 2.341E+01
  71.350	 2.780E+01	-2.153E-01	-2.129E-01	 7.713E+01	-5.891E+01	 5.028E+02	 1.249E+02	 8.270E+02	 2.656E+01	 8.089E+02	-2.130E+02	 1.396E+02	 2.018E+01	 2.205E+02	-2.238E+01	-2.019E+03	 2.388E+03	 1.680E+04	-9.580E+02	 1.440E+03	 8.151E+00	 2.334E+01
  71.400	 2.752E+01	 1.037E+00	-1.215E+00	 6.857E+01	-6.128E+01	 5.054E+02	 2.193E+02	 6.719E+02	 2.766E+01	 7.039E+02	-6.378E+01	 1.380E+02	 2.015E+01	 2.450E+02	-2.664E+01	-2.003E+03	 2.644E+03	 1.781E+04	-9.655E+02	 1.432E+03	 8.123E+00	 2.326E+01
  71.450	 2.786E+01	 9.560E-01	 8.902E-02	 6.147E+01	-6.030E+01	 5.097E+02	 3.186E+02	 5.825E+02	 2.815E+01	 6.608E+02	 6.454E+01	 1.369E+02	 2.008E+01	 2.535E+02	-2.909E+01	-1.988E+03	 2.795E+03	 1.830E+04	-1.131E+03	 1.418E+03	 8.068E+00	 2.310E+01
  71.500	 2.769E+01	 6.453E-01	 1.205E+00	 6.477E+01	-7.112E+01	 5.165E+02	 5.114E+02	 6.114E+02	 3.131E+01	 7.629E+02	 2.310E+02	 1.405E+02	 2.005E+01	 2.427E+02	-2.894E+01	-1.988E+03	 2.826E+03	 1.814E+04	-1.000E+03	 1.410E+03	 8.036E+00	 2.306E+01
  71.550	 2.622E+01	-5.869E-01	 6.887E-01	 6.307E+01	-7.417E+01	 5.232E+02	 6.942E+02	 6.500E+02	 2.745E+01	 8.694E+02	 3.853E+02	 1.289E+02	 2.003E+01	 2.210E+02	-2.456E+01	-1.979E+03	 2.721E+03	 1.760E+04	-9.978E+02	 1.409E+03	 8.032E+00	 2.299E+01
  71.600	 2.626E+01	-8.758E-01	 7.460E-01	 7.707E+01	-8.318E+01	 5.291E+02	 9.040E+02	 8.682E+02	 2.977E+01	 1.152E+03	 4.930E+02	 1.558E+02	 2.008E+01	 2.031E+02	-2.124E+01	-1.973E+03	 2.603E+03	 1.707E+04	-9.294E+02	 1.416E+03	 8.061E+00	 2.299E+01
  71.650	 2.575E+01	-2.258E-01	 1.193E+00	 8.785E+01	-1.024E+02	 5.320E+02	 1.097E+03	 1.018E+03	 2.521E+01	 1.367E+03	 6.096E+02	 1.621E+02	 2.015E+01	 1.877E+02	-1.605E+01	-1.980E+03	 2.445E+03	 1.661E+04	-7.643E+02	 1.431E+03	 8.116E+00	 2.311E+01
  71.700	 2.632E+01	-2.523E-01	 1.922E+00	 9.106E+01	-9.894E+01	 5.350E+02	 1.229E+03	 1.193E+03	 2.458E+01	 1.582E+03	 6.571E+02	 1.821E+02	 2.023E+01	 1.827E+02	-9.868E+00	-1.975E+03	 2.308E+03	 1.644E+04	-6.463E+02	 1.450E+03	 8.189E+00	 2.328E+01
  71.750	 2.500E+01	-5.610E-01	 1.789E+00	 1.014E+02	-1.190E+02	 5.361E+02	 1.370E+03	 1.292E+03	 2.302E+01	 1.730E+03	 7.457E+02	 1.884E+02	 2.032E+01	 1.831E+02	-9.924E+00	-2.007E+03	 2.353E+03	 1.648E+04	-4.512E+02	 1.470E+03	 8.266E+00	 2.336E+01
  71.800	 2.537E+01	 2.255E-01	 1.499E+00	 9.718E+01	-1.145E+02	 5.360E+02	 1.453E+03	 1.334E+03	 1.962E+01	 1.802E+03	 8.020E+02	 1.896E+02	 2.036E+01	 1.932E+02	-1.872E+01	-1.997E+03	 2.641E+03	 1.676E+04	-3.842E+02	 1.475E+03	 8.284E+00	 2.346E+01
  71.850	 2.586E+01	 3.467E-01	 1.369E+00	 1.109E+02	-1.378E+02	 5.358E+02	 1.567E+03	 1.358E+03	 2.891E+01	 1.870E+03	 8.964E+02	 1.925E+02	 2.034E+01	 2.006E+02	-2.676E+01	-2.028E+03	 2.963E+03	 1.702E+04	-2.100E+02	 1.473E+03	 8.276E+00	 2.348E+01
  71.900	 2.631E+01	 1.414E+00	 5.978E-01	 9.394E+01	-1.265E+02	 5.373E+02	 1.548E+03	 1.167E+03	 2.331E+01	 1.685E+03	 9.586E+02	 1.735E+02	 2.027E+01	 2.004E+02	-3.516E+01	-2.022E+03	 3.295E+03	 1.713E+04	-2.407E+02	 1.455E+03	 8.208E+00	 2.335E+01
  71.950	 2.564E+01	 1.992E+00	 7.497E-01	 8.464E+01	-1.227E+02	 5.408E+02	 1.547E+03	 9.781E+02	 2.385E+01	 1.508E+03	 1.037E+03	 1.787E+02	 2.019E+01	 2.067E+02	-4.186E+01	-2.011E+03	 3.552E+03	 1.736E+04	-3.778E+02	 1.440E+03	 8.151E+00	 2.319E+01
  72.000	 2.420E+01	 9.110E-01	-3.448E-01	 6.993E+01	-1.225E+02	 5.451E+02	 1.531E+03	 6.877E+02	 1.955E+01	 1.234E+03	 1.137E+03	 1.492E+02	 2.015E+01	 2.089E+02	-3.645E+01	-2.025E+03	 3.505E+03	 1.752E+04	-4.690E+02	 1.434E+03	 8.130E+00	 2.316E+01
  72.050	 2.475E+01	 1.043E+00	 8.182E-01	 5.476E+01	-1.056E+02	 5.532E+02	 1.411E+03	 4.624E+02	 1.910E+01	 9.788E+02	 1.117E+03	 1.612E+02	 2.013E+01	 2.165E+02	-2.787E+01	-2.003E+03	 3.357E+03	 1.774E+04	-7.909E+02	 1.428E+03	 8.106E+00	 2.309E+01
  72.100	 2.465E+01	 5.346E-01	-1.867E-01	 3.797E+01	-1.041E+02	 5.577E+02	 1.400E+03	 1.584E+02	 1.660E+01	 6.945E+02	 1.226E+03	 1.267E+02	 2.015E+01	 2.189E+02	-2.596E+01	-2.017E+03	 3.330E+03	 1.780E+04	-8.478E+02	 1.432E+03	 8.121E+00	 2.308E+01
  72.150	 2.423E+01	 4.194E-01	 6.563E-01	 2.799E+01	-1.028E+02	 5.627E+02	 1.344E+03	-4.657E+01	 1.753E+01	 4.841E+02	 1.254E+03	 1.095E+02	 2.016E+01	 2.133E+02	-2.812E+01	-2.019E+03	 3.416E+03	 1.758E+04	-8.145E+02	 1.437E+03	 8.139E+00	 2.309E+01
  72.200	 2.397E+01	-6.436E-01	-5.051E-01	 2.861E+01	-8.901E+01	 5.687E+02	 1.184E+03	-6.066E+01	 2.106E+01	 4.095E+02	 1.113E+03	 1.378E+02	 2.019E+01	 2.028E+02	-3.091E+01	-2.001E+03	 3.547E+03	 1.715E+04	-8.977E+02	 1.441E+03	 8.155E+00	 2.314E+01
  72.250	 2.405E+01	-1.409E+00	-1.075E+00	 2.928E+01	-9.318E+01	 5.732E+02	 1.140E+03	-1.007E+02	 1.910E+01	 3.562E+02	 1.088E+03	 1.248E+02	 2.023E+01	 1.842E+02	-3.627E+01	-2.017E+03	 3.724E+03	 1.653E+04	-7.598E+02	 1.450E+03	 8.190E+00	 2.318E+01
  72.300	 2.398E+01	-1.485E+00	-2.250E+00	 4.043E+01	-9.888E+01	 5.790E+02	 1.132E+03	 1.451E+01	 2.420E+01	 4.599E+02	 1.034E+03	 1.307E+02	 2.029E+01	 1.742E+02	-3.932E+01	-2.013E+03	 3.822E+03	 1.611E+04	-5.955E+02	 1.464E+03	 8.240E+00	 2.324E+01
  72.350	 2.339E+01	-3.930E-02	-2.579E+00	 4.876E+01	-9.928E+01	 5.824E+02	 1.006E+03	 9.682E+01	 2.630E+01	 4.877E+02	 8.854E+02	 1.405E+02	 2.032E+01	 1.792E+02	-3.377E+01	-2.025E+03	 3.709E+03	 1.606E+04	-5.021E+02	 1.469E+03	 8.261E+00	 2.335E+01
  72.400	 2.391E+01	 2.625E-01	-2.023E+00	 3.548E+01	-8.412E+01	 5.868E+02	 8.409E+02	 2.675E+01	 1.641E+01	 3.580E+02	 7.614E+02	 1.264E+02	 2.033E+01	 1.977E+02	-3.400E+01	-1.995E+03	 3.682E+03	 1.631E+04	-7.074E+02	 1.472E+03	 8.270E+00	 2.336E+01
  72.450	 2.481E+01	 4.093E-01	-2.100E+00	 2.490E+01	-6.207E+01	 5.881E+02	 6.061E+02	-2.356E+01	 7.980E+00	 2.181E+02	 5.659E+02	 1.209E+02	 2.029E+01	 2.184E+02	-3.352E+01	-1.983E+03	 3.637E+03	 1.650E+04	-7.828E+02	 1.464E+03	 8.243E+00	 2.330E+01
  72.500	 2.534E+01	 4.921E-01	-2.184E+00	 5.086E+01	-7.867E+01	 5.921E+02	 4.941E+02	 1.580E+02	 2.383E+01	 3.404E+02	 3.914E+02	 1.485E+02	 2.028E+01	 2.062E+02	-3.195E+01	-1.997E+03	 3.557E+03	 1.583E+04	-8.651E+02	 1.460E+03	 8.226E+00	 2.328E+01
  72.550	 2.453E+01	-2.392E-01	-1.203E+00	 4.805E+01	-5.772E+01	 5.940E+02	 2.950E+02	 2.124E+02	 2.347E+01	 3.117E+02	 1.870E+02	 1.589E+02	 2.027E+01	 1.784E+02	-3.212E+01	-1.988E+03	 3.460E+03	 1.465E+04	-8.043E+02	 1.454E+03	 8.206E+00	 2.328E+01
  72.600	 2.511E+01	-5.669E-01	-9.891E-01	 4.940E+01	-6.441E+01	 5.975E+02	 1.487E+02	 1.653E+02	 1.942E+01	 2.105E+02	 7.140E+01	 1.600E+02	 2.028E+01	 1.416E+02	-2.957E+01	-1.995E+03	 3.269E+03	 1.322E+04	-7.658E+02	 1.457E+03	 8.216E+00	 2.325E+01
  72.650	 2.535E+01	-1.763E+00	-8.077E-01	 4.780E+01	-4.890E+01	 6.021E+02	-2.507E+01	 2.265E+02	 1.864E+01	 1.982E+02	-1.125E+02	 1.754E+02	 2.032E+01	 1.157E+02	-2.594E+01	-1.982E+03	 3.032E+03	 1.210E+04	-5.722E+02	 1.468E+03	 8.257E+00	 2.326E+01
  72.700	 2.623E+01	-1.023E+00	-6.659E-01	 6.203E+01	-4.550E+01	 6.061E+02	-1.746E+02	 3.983E+02	 2.297E+01	 2.964E+02	-3.183E+02	 1.975E+02	 2.037E+01	 9.941E+01	-1.653E+01	-2.000E+03	 2.715E+03	 1.139E+04	-3.134E+02	 1.477E+03	 8.292E+00	 2.337E+01
  72.750	 2.624E+01	-9.663E-01	-6.867E-01	 4.292E+01	-1.379E+01	 6.095E+02	-4.450E+02	 3.187E+02	 8.579E+00	 1.153E+02	-5.350E+02	 1.875E+02	 2.043E+01	 1.097E+02	-1.329E+01	-2.019E+03	 2.586E+03	 1.148E+04	 1.154E+02	 1.493E+03	 8.350E+00	 2.345E+01
  72.800	 2.483E+01	-3.659E-01	-1.136E+00	 4.584E+01	-6.985E+00	 6.118E+02	-5.502E+02	 3.648E+02	 9.222E+00	 1.144E+02	-6.501E+02	 1.703E+02	 2.048E+01	 1.220E+02	-1.351E+01	-2.028E+03	 2.622E+03	 1.183E+04	 3.756E+02	 1.502E+03	 8.377E+00	 2.357E+01
  72.850	 2.527E+01	-1.066E+00	-1.602E+00	 5.427E+01	-1.236E+01	 6.126E+02	-6.723E+02	 3.633E+02	 9.176E+00	 6.403E+01	-7.615E+02	 1.647E+02	 2.045E+01	 1.435E+02	-2.088E+01	-2.030E+03	 2.882E+03	 1.250E+04	 3.677E+02	 1.496E+03	 8.360E+00	 2.358E+01
  72.900	 2.425E+01	-1.915E-01	-1.746E+00	 5.414E+01	-6.433E+00	 6.135E+02	-7.253E+02	 3.573E+02	 9.317E+00	 3.950E+01	-8.076E+02	 1.569E+02	 2.040E+01	 1.564E+02	-3.781E+01	-2.059E+03	 3.347E+03	 1.301E+04	 4.708E+02	 1.482E+03	 8.309E+00	 2.343E+01
  72.950	 2.313E+01	-8.584E-01	-9.930E-01	 4.606E+01	 4.543E+00	 6.128E+02	-7.895E+02	 2.691E+02	 4.342E+00	-6.490E+01	-8.316E+02	 1.326E+02	 2.032E+01	 1.643E+02	-4.467E+01	-2.041E+03	 3.574E+03	 1.336E+04	 4.061E+02	 1.466E+03	 8.249E+00	 2.329E+01
  73.000	 2.294E+01	-1.015E+00	-7.583E-01	 5.401E+01	 8.800E+00	 6.136E+02	-8.277E+02	 3.289E+02	 1.343E+01	-2.459E+01	-8.903E+02	 1.409E+02	 2.028E+01	 1.578E+02	-4.050E+01	-2.051E+03	 3.504E+03	 1.336E+04	 4.041E+02	 1.461E+03	 8.231E+00	 2.325E+01
  73.050	 2.263E+01	-1.704E+00	-1.714E+00	 4.811E+01	 1.380E+01	 6.119E+02	-8.828E+02	 2.372E+02	 7.398E+00	-1.302E+02	-9.048E+02	 1.281E+02	 2.030E+01	 1.551E+02	-3.077E+01	-2.053E+03	 3.262E+03	 1.344E+04	 4.506E+02	 1.462E+03	 8.235E+00	 2.323E+01
  73.100	 2.280E+01	-1.340E+00	-1.779E+00	 4.272E+01	 2.876E+01	 6.100E+02	-9.353E+02	 2.555E+02	 5.397E+00	-1.351E+02	-9.601E+02	 1.133E+02	 2.035E+01	 1.605E+02	-2.238E+01	-2.059E+03	 3.044E+03	 1.373E+04	 3.656E+02	 1.476E+03	 8.286E+00	 2.329E+01
  73.150	 2.431E+01	-1.507E+00	-2.234E+00	 5.940E+01	 9.167E+00	 6.074E+02	-9.110E+02	 3.130E+02	 1.379E+01	-7.373E+01	-9.605E+02	 1.076E+02	 2.038E+01	 1.802E+02	-2.400E+01	-2.034E+03	 3.069E+03	 1.434E+04	 1.224E+02	 1.482E+03	 8.308E+00	 2.335E+01
  73.200	 2.396E+01	-2.584E-01	-1.603E+00	 4.230E+01	 3.117E+01	 6.028E+02	-1.032E+03	 2.225E+02	 4.649E+00	-2.057E+02	-1.036E+03	 7.655E+01	 2.038E+01	 1.941E+02	-2.855E+01	-2.038E+03	 3.191E+03	 1.476E+04	 2.290E+02	 1.483E+03	 8.313E+00	 2.339E+01
  73.250	 2.382E+01	 1.010E+00	-5.562E-01	 5.063E+01	 3.291E+01	 5.990E+02	-1.099E+03	 3.309E+02	 8.602E+00	-1.322E+02	-1.140E+03	 9.598E+01	 2.038E+01	 1.968E+02	-3.808E+01	-2.045E+03	 3.388E+03	 1.479E+04	 2.180E+02	 1.483E+03	 8.314E+00	 2.337E+01
  73.300	 2.284E+01	-4.350E-01	-5.672E-01	 4.753E+01	 3.866E+01	 5.919E+02	-1.121E+03	 3.714E+02	 3.604E+00	-1.021E+02	-1.176E+03	 9.450E+01	 2.033E+01	 1.848E+02	-4.300E+01	-2.052E+03	 3.413E+03	 1.437E+04	 2.584E+02	 1.469E+03	 8.262E+00	 2.329E+01
  73.350	 2.332E+01	-1.057E+00	-1.193E+00	 7.015E+01	 2.189E+01	 5.870E+02	-1.035E+03	 5.836E+02	 1.388E+01	 1.276E+02	-1.182E+03	 1.046E+02	 2.032E+01	 1.789E+02	-3.655E+01	-2.017E+03	 3.109E+03	 1.396E+04	 1.455E+01	 1.467E+03	 8.253E+00	 2.325E+01
  73.400	 2.327E+01	-2.720E-01	-9.970E-01	 7.135E+01	 2.085E+01	 5.793E+02	-1.018E+03	 6.488E+02	 1.093E+01	 1.957E+02	-1.191E+03	 9.384E+01	 2.027E+01	 1.714E+02	-2.252E+01	-2.005E+03	 2.588E+03	 1.346E+04	-7.723E+01	 1.460E+03	 8.225E+00	 2.318E+01
  73.450	 2.275E+01	-7.936E-01	-7.638E-01	 6.501E+01	 3.655E+01	 5.745E+02	-1.097E+03	 7.062E+02	 1.011E+01	 2.182E+02	-1.286E+03	 8.931E+01	 2.025E+01	 1.726E+02	-9.059E+00	-2.015E+03	 2.073E+03	 1.308E+04	-6.758E+01	 1.456E+03	 8.210E+00	 2.315E+01
  73.500	 2.169E+01	 2.764E-01	-1.082E+00	 7.822E+01	 3.072E+01	 5.684E+02	-1.064E+03	 9.013E+02	 1.659E+01	 4.112E+02	-1.333E+03	 1.105E+02	 2.022E+01	 1.655E+02	-6.958E+00	-2.010E+03	 1.828E+03	 1.244E+04	-1.406E+02	 1.443E+03	 8.162E+00	 2.311E+01
  73.550	 2.157E+01	-9.690E-01	-2.318E+00	 8.190E+01	 2.865E+01	 5.640E+02	-1.030E+03	 1.033E+03	 1.330E+01	 5.466E+02	-1.353E+03	 1.034E+02	 2.020E+01	 1.534E+02	-1.118E+01	-1.999E+03	 1.746E+03	 1.160E+04	-1.307E+02	 1.442E+03	 8.160E+00	 2.306E+01
  73.600	 2.218E+01	-5.941E-01	-3.074E+00	 8.742E+01	 2.304E+01	 5.587E+02	-1.019E+03	 1.141E+03	 1.384E+01	 6.508E+02	-1.384E+03	 1.038E+02	 2.021E+01	 1.317E+02	-1.166E+01	-1.994E+03	 1.597E+03	 1.048E+04	-1.234E+02	 1.446E+03	 8.175E+00	 2.305E+01
  73.650	 2.109E+01	-4.173E-01	-1.160E+00	 9.343E+01	 2.355E+01	 5.525E+02	-1.018E+03	 1.279E+03	 1.930E+01	 7.787E+02	-1.437E+03	 1.302E+02	 2.020E+01	 1.003E+02	-8.565E+00	-2.002E+03	 1.353E+03	 9.177E+03	-4.395E+01	 1.443E+03	 8.163E+00	 2.302E+01
  73.700	 2.208E+01	-4.331E-01	-7.673E-01	 1.019E+02	 1.836E+01	 5.488E+02	-9.483E+02	 1.442E+03	 2.309E+01	 9.562E+02	-1.437E+03	 1.357E+02	 2.021E+01	 8.439E+01	-2.428E+00	-2.014E+03	 1.037E+03	 8.266E+03	 1.070E+02	 1.445E+03	 8.171E+00	 2.302E+01
  73.750	 2.247E+01	-2.422E-01	-1.513E-01	 1.059E+02	 1.440E+01	 5.437E+02	-9.395E+02	 1.510E+03	 2.531E+01	 1.022E+03	-1.456E+03	 1.409E+02	 2.023E+01	 7.299E+01	 9.187E+00	-2.022E+03	 6.526E+02	 7.625E+03	 3.305E+02	 1.446E+03	 8.176E+00	 2.305E+01
  73.800	 2.302E+01	-1.154E+00	-1.086E+00	 1.078E+02	 7.630E+00	 5.376E+02	-8.784E+02	 1.558E+03	 2.548E+01	 1.090E+03	-1.418E+03	 1.443E+02	 2.024E+01	 7.040E+01	 1.215E+01	-2.021E+03	 5.250E+02	 7.368E+03	 3.892E+02	 1.450E+03	 8.189E+00	 2.304E+01
  73.850	 2.293E+01	-1.485E+00	-4.860E-01	 9.952E+01	 9.943E+00	 5.328E+02	-8.365E+02	 1.516E+03	 2.088E+01	 1.067E+03	-1.363E+03	 1.300E+02	 2.023E+01	 7.489E+01	 8.019E+00	-2.046E+03	 6.335E+02	 7.464E+03	 4.950E+02	 1.450E+03	 8.191E+00	 2.305E+01
  73.900	 2.305E+01	-4.783E-01	 6.623E-01	 1.004E+02	 8.786E+00	 5.265E+02	-8.015E+02	 1.512E+03	 2.599E+01	 1.079E+03	-1.329E+03	 1.603E+02	 2.021E+01	 8.511E+01	-8.453E-01	-2.042E+03	 9.088E+02	 7.846E+03	 2.915E+02	 1.443E+03	 8.163E+00	 2.299E+01
  73.950	 2.292E+01	-1.818E+00	 1.292E-01	 1.050E+02	-6.072E+00	 5.242E+02	-6.001E+02	 1.532E+03	 2.929E+01	 1.177E+03	-1.150E+03	 1.342E+02	 2.018E+01	 1.084E+02	-9.928E+00	-2.038E+03	 1.181E+03	 8.569E+03	 2.357E+02	 1.438E+03	 8.145E+00	 2.293E+01
  74.000	 2.287E+01	-1.040E-01	-7.371E-01	 9.227E+01	-6.864E+00	 5.223E+02	-5.368E+02	 1.349E+03	 2.306E+01	 1.034E+03	-1.020E+03	 1.242E+02	 2.017E+01	 1.125E+02	-1.135E+01	-2.053E+03	 1.263E+03	 8.955E+03	 3.249E+02	 1.439E+03	 8.148E+00	 2.291E+01
  74.050	 2.364E+01	-3.665E-01	 3.123E-01	 9.006E+01	-1.521E+01	 5.202E+02	-4.000E+02	 1.267E+03	 2.598E+01	 1.012E+03	-8.607E+02	 1.264E+02	 2.018E+01	 1.167E+02	-7.230E+00	-2.025E+03	 1.196E+03	 9.348E+03	 4.698E+01	 1.441E+03	 8.155E+00	 2.286E+01
  74.100	 2.258E+01	 4.175E-02	-3.976E-01	 8.677E+01	-1.554E+01	 5.184E+02	-2.994E+02	 1.185E+03	 3.135E+01	 9.749E+02	-7.366E+02	 1.305E+02	 2.017E+01	 1.230E+02	 2.751E+00	-2.033E+03	 1.014E+03	 9.819E+03	 2.111E+02	 1.439E+03	 8.147E+00	 2.289E+01
  74.150	 2.286E+01	-8.724E-02	-1.144E-01	 6.720E+01	-1.390E+01	 5.177E+02	-2.103E+02	 9.393E+02	 2.201E+01	 7.836E+02	-5.590E+02	 9.819E+01	 2.016E+01	 1.261E+02	 4.764E+00	-2.025E+03	 1.026E+03	 1.029E+04	 5.509E+01	 1.435E+03	 8.131E+00	 2.288E+01
  74.200	 2.205E+01	 2.182E-01	-6.332E-01	 7.689E+01	-3.428E+01	 5.170E+02	-2.790E+01	 9.315E+02	 2.772E+01	 8.476E+02	-3.872E+02	 1.111E+02	 2.016E+01	 1.441E+02	-4.963E+00	-2.013E+03	 1.312E+03	 1.108E+04	-1.175E+02	 1.434E+03	 8.128E+00	 2.284E+01
  74.250	 2.197E+01	 7.123E-02	-6.207E-02	 6.842E+01	-3.559E+01	 5.163E+02	 8.396E+01	 8.116E+02	 2.285E+01	 7.806E+02	-2.377E+02	 1.051E+02	 2.016E+01	 1.563E+02	-1.215E+01	-2.023E+03	 1.557E+03	 1.176E+04	 8.066E+00	 1.433E+03	 8.124E+00	 2.284E+01
  74.300	 2.255E+01	 6.391E-01	-7.245E-01	 8.356E+01	-5.983E+01	 5.157E+02	 3.082E+02	 8.822E+02	 3.148E+01	 9.326E+02	-5.889E+01	 1.137E+02	 2.019E+01	 1.692E+02	-1.582E+01	-2.039E+03	 1.681E+03	 1.236E+04	 2.535E+02	 1.441E+03	 8.155E+00	 2.287E+01
  74.350	 2.224E+01	 1.496E-01	-1.484E+00	 7.042E+01	-6.291E+01	 5.166E+02	 4.366E+02	 7.227E+02	 2.754E+01	 8.356E+02	 1.213E+02	 9.530E+01	 2.019E+01	 1.680E+02	-1.275E+01	-2.021E+03	 1.615E+03	 1.260E+04	 1.536E+02	 1.438E+03	 8.143E+00	 2.288E+01
  74.400	 2.243E+01	 8.818E-02	-1.544E+00	 7.155E+01	-7.018E+01	 5.181E+02	 5.961E+02	 7.369E+02	 2.846E+01	 9.104E+02	 2.635E+02	 9.868E+01	 2.017E+01	 1.716E+02	-8.134E+00	-2.006E+03	 1.495E+03	 1.286E+04	 5.752E+00	 1.435E+03	 8.131E+00	 2.283E+01
  74.450	 2.296E+01	 4.313E-01	-1.766E+00	 6.526E+01	-6.968E+01	 5.197E+02	 7.139E+02	 7.045E+02	 2.416E+01	 9.258E+02	 3.858E+02	 9.395E+01	 2.014E+01	 1.692E+02	-4.461E+00	-2.022E+03	 1.408E+03	 1.296E+04	-1.861E+02	 1.430E+03	 8.113E+00	 2.276E+01
  74.500	 2.218E+01	 1.227E-01	-1.167E+00	 6.203E+01	-7.288E+01	 5.214E+02	 8.389E+02	 7.124E+02	 2.131E+01	 9.814E+02	 4.980E+02	 9.591E+01	 2.012E+01	 1.707E+02	-5.473E+00	-2.014E+03	 1.432E+03	 1.306E+04	-2.948E+02	 1.425E+03	 8.093E+00	 2.276E+01
  74.550	 2.300E+01	 1.285E+00	-4.312E-01	 6.702E+01	-8.491E+01	 5.235E+02	 9.757E+02	 7.670E+02	 2.225E+01	 1.084E+03	 6.040E+02	 1.125E+02	 2.012E+01	 1.724E+02	-1.155E+01	-2.014E+03	 1.551E+03	 1.310E+04	-5.196E+02	 1.423E+03	 8.086E+00	 2.271E+01
  74.600	 2.281E+01	 1.216E+00	 7.770E-03	 5.981E+01	-7.801E+01	 5.281E+02	 1.064E+03	 8.026E+02	 2.040E+01	 1.151E+03	 6.723E+02	 1.226E+02	 2.013E+01	 1.652E+02	-1.312E+01	-2.003E+03	 1.550E+03	 1.288E+04	-6.762E+02	 1.424E+03	 8.091E+00	 2.269E+01
  74.650	 2.259E+01	 1.497E+00	-3.243E-01	 7.619E+01	-9.503E+01	 5.320E+02	 1.271E+03	 1.024E+03	 2.411E+01	 1.436E+03	 7.767E+02	 1.267E+02	 2.016E+01	 1.559E+02	-7.230E+00	-2.012E+03	 1.361E+03	 1.254E+04	-4.641E+02	 1.436E+03	 8.134E+00	 2.274E+01
  74.700	 2.231E+01	 1.057E+00	-2.741E-01	 8.329E+01	-1.023E+02	 5.358E+02	 1.368E+03	 1.195E+03	 2.299E+01	 1.632E+03	 7.972E+02	 1.512E+02	 2.021E+01	 1.454E+02	-8.498E-01	-1.993E+03	 1.155E+03	 1.217E+04	-4.075E+02	 1.447E+03	 8.178E+00	 2.283E+01
  74.750	 2.221E+01	 1.448E+00	 8.505E-01	 9.472E+01	-1.081E+02	 5.412E+02	 1.486E+03	 1.424E+03	 1.963E+01	 1.890E+03	 8.159E+02	 1.720E+02	 2.027E+01	 1.261E+02	 7.107E+00	-2.016E+03	 9.738E+02	 1.173E+04	-1.211E+02	 1.458E+03	 8.220E+00	 2.287E+01
  74.800	 2.102E+01	 2.401E+00	 2.800E-01	 1.134E+02	-1.273E+02	 5.453E+02	 1.643E+03	 1.643E+03	 2.537E+01	 2.155E+03	 8.702E+02	 1.982E+02	 2.034E+01	 1.224E+02	 5.045E+00	-2.043E+03	 1.068E+03	 1.178E+04	 1.333E+02	 1.471E+03	 8.267E+00	 2.300E+01
  74.850	 2.229E+01	 1.379E+00	-3.029E-03	 1.133E+02	-1.297E+02	 5.465E+02	 1.741E+03	 1.722E+03	 2.162E+01	 2.267E+03	 9.272E+02	 1.925E+02	 2.037E+01	 1.388E+02	-4.955E+00	-2.040E+03	 1.391E+03	 1.243E+04	 3.309E+02	 1.478E+03	 8.292E+00	 2.306E+01
  74.900	 2.259E+01	 1.399E+00	-1.221E-01	 1.127E+02	-1.419E+02	 5.487E+02	 1.792E+03	 1.661E+03	 2.103E+01	 2.230E+03	 9.983E+02	 1.825E+02	 2.034E+01	 1.634E+02	-1.584E+01	-2.058E+03	 1.768E+03	 1.340E+04	 3.707E+02	 1.472E+03	 8.272E+00	 2.304E+01
  74.950	 2.218E+01	 2.172E+00	 4.330E-01	 9.784E+01	-1.329E+02	 5.537E+02	 1.763E+03	 1.490E+03	 1.846E+01	 2.060E+03	 1.042E+03	 1.624E+02	 2.029E+01	 1.860E+02	-2.328E+01	-2.056E+03	 2.044E+03	 1.441E+04	 2.556E+02	 1.464E+03	 8.241E+00	 2.296E+01
  75.000	 2.215E+01	 2.475E+00	 1.771E-01	 1.073E+02	-1.412E+02	 5.569E+02	 1.808E+03	 1.521E+03	 2.861E+01	 2.104E+03	 1.076E+03	 1.731E+02	 2.020E+01	 2.063E+02	-2.528E+01	-2.063E+03	 2.134E+03	 1.533E+04	 3.299E+02	 1.442E+03	 8.159E+00	 2.286E+01
  75.050	 2.264E+01	 2.295E+00	-6.348E-01	 9.998E+01	-1.344E+02	 5.639E+02	 1.775E+03	 1.413E+03	 2.374E+01	 1.989E+03	 1.092E+03	 1.622E+02	 2.013E+01	 2.107E+02	-1.835E+01	-2.063E+03	 1.977E+03	 1.587E+04	 1.547E+02	 1.429E+03	 8.110E+00	 2.270E+01
  75.100	 2.191E+01	 1.772E+00	 3.455E-01	 9.639E+01	-1.309E+02	 5.688E+02	 1.730E+03	 1.339E+03	 2.435E+01	 1.901E+03	 1.082E+03	 1.731E+02	 2.014E+01	 2.146E+02	-1.557E+01	-2.054E+03	 1.842E+03	 1.631E+04	 1.844E+01	 1.432E+03	 8.121E+00	 2.261E+01
  75.150	 2.185E+01	 2.340E+00	 2.380E-01	 1.057E+02	-1.411E+02	 5.764E+02	 1.729E+03	 1.349E+03	 2.478E+01	 1.913E+03	 1.072E+03	 1.793E+02	 2.023E+01	 2.083E+02	-7.072E+00	-2.061E+03	 1.583E+03	 1.652E+04	 2.432E+00	 1.450E+03	 8.187E+00	 2.277E+01
  75.200	 2.239E+01	 2.145E+00	 3.662E-01	 9.291E+01	-1.182E+02	 5.821E+02	 1.556E+03	 1.255E+03	 1.747E+01	 1.763E+03	 9.423E+02	 1.799E+02	 2.033E+01	 2.146E+02	-1.424E+00	-2.027E+03	 1.397E+03	 1.700E+04	-2.578E+02	 1.474E+03	 8.278E+00	 2.297E+01
  75.250	 2.368E+01	 1.662E+00	-3.162E-01	 8.729E+01	-1.111E+02	 5.856E+02	 1.526E+03	 1.215E+03	 1.578E+01	 1.715E+03	 9.290E+02	 1.518E+02	 2.043E+01	 2.266E+02	-6.073E+00	-2.023E+03	 1.429E+03	 1.765E+04	-1.363E+02	 1.494E+03	 8.353E+00	 2.304E+01
  75.300	 2.425E+01	 2.143E+00	-1.032E+00	 9.900E+01	-1.253E+02	 5.901E+02	 1.456E+03	 1.220E+03	 2.587E+01	 1.695E+03	 8.578E+02	 1.605E+02	 2.049E+01	 2.448E+02	-1.200E+01	-2.037E+03	 1.488E+03	 1.841E+04	-1.875E+02	 1.502E+03	 8.377E+00	 2.320E+01
  75.350	 2.428E+01	 1.667E+00	-1.288E-01	 1.003E+02	-1.240E+02	 5.938E+02	 1.381E+03	 1.191E+03	 3.200E+01	 1.640E+03	 7.984E+02	 1.449E+02	 2.050E+01	 2.611E+02	-1.561E+01	-2.052E+03	 1.455E+03	 1.903E+04	-8.731E+01	 1.502E+03	 8.377E+00	 2.327E+01
  75.400	 2.479E+01	 1.876E+00	-4.900E-01	 1.009E+02	-1.233E+02	 5.976E+02	 1.232E+03	 1.134E+03	 3.400E+01	 1.527E+03	 6.865E+02	 1.495E+02	 2.046E+01	 2.699E+02	-1.573E+01	-2.055E+03	 1.269E+03	 1.929E+04	-1.559E+02	 1.496E+03	 8.361E+00	 2.318E+01
  75.450	 2.544E+01	 1.343E+00	-1.571E+00	 8.816E+01	-1.020E+02	 6.012E+02	 1.058E+03	 1.032E+03	 2.932E+01	 1.364E+03	 5.688E+02	 1.377E+02	 2.042E+01	 2.569E+02	-6.982E+00	-2.016E+03	 8.122E+02	 1.888E+04	-4.212E+02	 1.486E+03	 8.325E+00	 2.309E+01
  75.500	 2.558E+01	 1.265E+00	-1.072E+00	 9.140E+01	-1.009E+02	 6.037E+02	 9.018E+02	 1.005E+03	 2.997E+01	 1.278E+03	 4.351E+02	 1.435E+02	 2.038E+01	 2.388E+02	 7.037E+00	-2.031E+03	 1.898E+02	 1.820E+04	-3.786E+02	 1.478E+03	 8.293E+00	 2.310E+01
  75.550	 2.545E+01	 1.901E-01	-2.749E-01	 7.579E+01	-7.428E+01	 6.067E+02	 7.070E+02	 9.205E+02	 2.327E+01	 1.124E+03	 2.905E+02	 1.386E+02	 2.038E+01	 2.255E+02	 1.473E+01	-2.003E+03	-3.256E+02	 1.756E+04	-6.470E+02	 1.484E+03	 8.316E+00	 2.304E+01
  75.600	 2.414E+01	 1.086E+00	-4.599E-01	 9.109E+01	-8.005E+01	 6.107E+02	 5.951E+02	 1.016E+03	 3.330E+01	 1.168E+03	 1.494E+02	 1.594E+02	 2.042E+01	 2.143E+02	 2.279E+01	-2.013E+03	-8.174E+02	 1.693E+04	-5.229E+02	 1.488E+03	 8.331E+00	 2.308E+01
  75.650	 2.418E+01	 2.624E-01	-1.480E+00	 9.508E+01	-7.732E+01	 6.160E+02	 4.269E+02	 1.036E+03	 3.593E+01	 1.120E+03	-1.588E+01	 1.710E+02	 2.049E+01	 2.094E+02	 2.636E+01	-2.007E+03	-1.190E+03	 1.641E+04	-6.023E+02	 1.502E+03	 8.377E+00	 2.320E+01
  75.700	 2.441E+01	 5.500E-01	-1.640E+00	 8.060E+01	-4.535E+01	 6.205E+02	 2.547E+02	 1.063E+03	 2.922E+01	 1.077E+03	-1.875E+02	 1.536E+02	 2.056E+01	 1.950E+02	 3.082E+01	-2.032E+03	-1.559E+03	 1.568E+04	-3.338E+02	 1.507E+03	 8.377E+00	 2.335E+01
  75.750	 2.522E+01	 1.495E-01	-8.062E-01	 1.000E+02	-6.094E+01	 6.258E+02	 1.675E+02	 1.224E+03	 3.741E+01	 1.190E+03	-3.327E+02	 1.735E+02	 2.063E+01	 1.848E+02	 3.339E+01	-2.019E+03	-1.861E+03	 1.504E+04	-4.599E+02	 1.513E+03	 8.377E+00	 2.341E+01
[...]
 596.100	 2.518E+01	-4.073E-01	 2.568E-01	 7.951E+01	-3.479E+01	 5.625E+02	-1.314E+02	 8.531E+02	 2.492E+01	 7.308E+02	-4.594E+02	 1.254E+02	 2.090E+01	 1.600E+02	-4.258E+00	-2.035E+03	 6.942E+02	 1.290E+04	 1.751E+02	 1.533E+03	 8.377E+00	 2.340E+01
 596.150	 2.477E+01	-1.083E+00	-1.518E-01	 7.354E+01	-3.895E+01	 5.626E+02	 5.260E+01	 7.977E+02	 2.331E+01	 7.530E+02	-2.684E+02	 1.259E+02	 2.090E+01	 1.712E+02	-1.539E-01	-2.027E+03	 5.785E+02	 1.307E+04	 1.612E+02	 1.532E+03	 8.377E+00	 2.339E+01
 596.200	 2.438E+01	-5.224E-01	-1.055E+00	 7.811E+01	-5.799E+01	 5.629E+02	 2.741E+02	 7.806E+02	 2.863E+01	 8.252E+02	-5.925E+01	 1.286E+02	 2.093E+01	 1.830E+02	 6.077E+00	-2.030E+03	 3.829E+02	 1.322E+04	 1.228E+02	 1.534E+03	 8.377E+00	 2.346E+01
 596.250	 2.480E+01	-6.178E-01	-5.187E-01	 7.044E+01	-6.053E+01	 5.637E+02	 4.267E+02	 7.030E+02	 2.712E+01	 8.149E+02	 1.108E+02	 1.309E+02	 2.098E+01	 1.823E+02	 1.234E+01	-2.027E+03	 2.026E+02	 1.305E+04	-1.087E+02	 1.538E+03	 8.377E+00	 2.351E+01
 596.300	 2.446E+01	-8.530E-01	-1.136E+00	 5.611E+01	-5.559E+01	 5.649E+02	 5.626E+02	 5.989E+02	 2.067E+01	 7.740E+02	 2.759E+02	 1.234E+02	 2.102E+01	 1.745E+02	 1.194E+01	-1.995E+03	 1.991E+02	 1.261E+04	-4.258E+02	 1.542E+03	 8.377E+00	 2.359E+01
 596.350	 2.395E+01	-6.612E-01	-1.069E+00	 6.118E+01	-6.525E+01	 5.664E+02	 6.905E+02	 6.247E+02	 2.486E+01	 8.491E+02	 3.820E+02	 1.420E+02	 2.102E+01	 1.551E+02	 8.713E+00	-2.004E+03	 3.128E+02	 1.189E+04	-4.280E+02	 1.542E+03	 8.377E+00	 2.365E+01
 596.400	 2.419E+01	 8.547E-01	-6.472E-01	 6.043E+01	-7.597E+01	 5.680E+02	 7.988E+02	 5.678E+02	 2.350E+01	 8.410E+02	 5.032E+02	 1.456E+02	 2.102E+01	 1.444E+02	 2.584E+00	-2.007E+03	 5.099E+02	 1.141E+04	-5.065E+02	 1.541E+03	 8.377E+00	 2.370E+01
 596.450	 2.478E+01	 9.613E-01	-1.902E-01	 6.862E+01	-9.651E+01	 5.692E+02	 1.046E+03	 6.447E+02	 2.629E+01	 1.010E+03	 6.996E+02	 1.342E+02	 2.099E+01	 1.445E+02	-4.490E+00	-2.030E+03	 7.050E+02	 1.126E+04	-2.260E+02	 1.538E+03	 8.377E+00	 2.365E+01
 596.500	 2.389E+01	 2.135E-01	-4.581E-01	 7.121E+01	-1.077E+02	 5.706E+02	 1.166E+03	 6.436E+02	 2.502E+01	 1.057E+03	 8.104E+02	 1.373E+02	 2.095E+01	 1.570E+02	-9.701E-01	-2.036E+03	 6.596E+02	 1.144E+04	-2.274E+02	 1.536E+03	 8.377E+00	 2.361E+01
 596.550	 2.420E+01	-4.695E-01	-1.005E-02	 6.375E+01	-1.044E+02	 5.744E+02	 1.260E+03	 6.169E+02	 2.241E+01	 1.070E+03	 9.085E+02	 1.301E+02	 2.091E+01	 1.644E+02	 3.515E+00	-2.048E+03	 5.731E+02	 1.153E+04	-2.898E+02	 1.533E+03	 8.377E+00	 2.357E+01
 596.600	 2.368E+01	-9.416E-01	 2.708E-01	 7.539E+01	-1.232E+02	 5.762E+02	 1.401E+03	 6.711E+02	 3.090E+01	 1.175E+03	 1.017E+03	 1.405E+02	 2.089E+01	 1.695E+02	 3.393E+00	-2.053E+03	 5.738E+02	 1.152E+04	-2.460E+02	 1.531E+03	 8.377E+00	 2.352E+01
 596.650	 2.397E+01	-2.258E-01	-2.071E-01	 6.822E+01	-1.156E+02	 5.821E+02	 1.427E+03	 6.535E+02	 2.382E+01	 1.169E+03	 1.048E+03	 1.427E+02	 2.089E+01	 1.543E+02	 3.892E+00	-2.051E+03	 5.857E+02	 1.104E+04	-3.683E+02	 1.531E+03	 8.377E+00	 2.352E+01
 596.700	 2.332E+01	-2.203E-01	-3.292E-01	 6.834E+01	-1.157E+02	 5.868E+02	 1.477E+03	 6.526E+02	 2.438E+01	 1.189E+03	 1.093E+03	 1.490E+02	 2.091E+01	 1.424E+02	 7.147E-02	-2.037E+03	 6.858E+02	 1.062E+04	-4.382E+02	 1.532E+03	 8.377E+00	 2.356E+01
 596.750	 2.386E+01	-6.713E-01	 6.869E-02	 6.014E+01	-1.089E+02	 5.910E+02	 1.471E+03	 5.907E+02	 2.077E+01	 1.130E+03	 1.112E+03	 1.381E+02	 2.092E+01	 1.384E+02	-4.460E+00	-2.023E+03	 7.840E+02	 1.042E+04	-5.884E+02	 1.533E+03	 8.377E+00	 2.359E+01
 596.800	 2.407E+01	-3.151E-01	 3.926E-02	 6.896E+01	-1.261E+02	 5.949E+02	 1.507E+03	 6.069E+02	 2.607E+01	 1.160E+03	 1.137E+03	 1.288E+02	 2.093E+01	 1.481E+02	-5.400E+00	-2.039E+03	 7.648E+02	 1.054E+04	-5.566E+02	 1.534E+03	 8.377E+00	 2.365E+01
 596.850	 2.413E+01	-9.117E-01	-6.963E-01	 5.916E+01	-1.085E+02	 5.983E+02	 1.456E+03	 5.902E+02	 2.004E+01	 1.125E+03	 1.097E+03	 1.112E+02	 2.090E+01	 1.532E+02	-2.533E+00	-2.017E+03	 6.087E+02	 1.055E+04	-5.306E+02	 1.532E+03	 8.377E+00	 2.366E+01
 596.900	 2.423E+01	-1.240E-01	-7.242E-01	 5.669E+01	-1.041E+02	 6.034E+02	 1.422E+03	 5.887E+02	 1.931E+01	 1.109E+03	 1.066E+03	 1.010E+02	 2.088E+01	 1.455E+02	 4.221E+00	-2.008E+03	 3.207E+02	 1.023E+04	-4.769E+02	 1.530E+03	 8.377E+00	 2.364E+01
 596.950	 2.335E+01	 8.107E-01	-1.905E+00	 6.956E+01	-1.235E+02	 6.064E+02	 1.447E+03	 6.299E+02	 2.174E+01	 1.157E+03	 1.074E+03	 1.099E+02	 2.087E+01	 1.234E+02	 8.894E+00	-2.025E+03	 3.559E+01	 9.562E+03	-3.400E+02	 1.530E+03	 8.377E+00	 2.360E+01
 597.000	 2.385E+01	 1.750E+00	-1.698E-01	 6.164E+01	-1.062E+02	 6.113E+02	 1.368E+03	 6.245E+02	 1.770E+01	 1.119E+03	 1.004E+03	 1.074E+02	 2.083E+01	 1.099E+02	 1.404E+01	-2.000E+03	-2.542E+02	 9.084E+03	-3.828E+02	 1.528E+03	 8.377E+00	 2.356E+01
 597.050	 2.411E+01	 1.425E+00	-1.297E+00	 7.214E+01	-1.045E+02	 6.150E+02	 1.348E+03	 7.626E+02	 2.643E+01	 1.238E+03	 9.306E+02	 1.240E+02	 2.084E+01	 1.059E+02	 1.542E+01	-1.998E+03	-4.612E+02	 8.902E+03	-1.432E+02	 1.528E+03	 8.377E+00	 2.356E+01
 597.100	 2.388E+01	 2.105E+00	 3.285E-01	 7.693E+01	-1.117E+02	 6.216E+02	 1.284E+03	 7.958E+02	 2.670E+01	 1.244E+03	 8.574E+02	 1.291E+02	 2.088E+01	 1.072E+02	 1.581E+01	-2.001E+03	-6.428E+02	 8.974E+03	-2.759E+02	 1.529E+03	 8.377E+00	 2.362E+01
 597.150	 2.328E+01	 2.094E+00	 3.926E-02	 6.264E+01	-8.896E+01	 6.266E+02	 1.160E+03	 7.678E+02	 2.081E+01	 1.169E+03	 7.548E+02	 1.058E+02	 2.088E+01	 1.259E+02	 1.834E+01	-1.984E+03	-8.651E+02	 9.497E+03	-3.363E+02	 1.531E+03	 8.377E+00	 2.366E+01
 597.200	 2.473E+01	 1.462E+00	-3.806E-01	 6.003E+01	-8.151E+01	 6.304E+02	 1.005E+03	 7.847E+02	 1.371E+01	 1.122E+03	 6.057E+02	 1.143E+02	 2.090E+01	 1.460E+02	 1.904E+01	-1.981E+03	-1.054E+03	 1.006E+04	-4.365E+02	 1.533E+03	 8.377E+00	 2.368E+01
 597.250	 2.445E+01	 2.026E+00	-3.557E-01	 7.857E+01	-9.214E+01	 6.330E+02	 9.485E+02	 9.541E+02	 2.079E+01	 1.255E+03	 4.846E+02	 1.214E+02	 2.089E+01	 1.425E+02	 2.660E+01	-2.004E+03	-1.370E+03	 1.011E+04	-5.596E+02	 1.533E+03	 8.377E+00	 2.372E+01
 597.300	 2.512E+01	 2.217E+00	-4.526E-01	 9.857E+01	-1.025E+02	 6.349E+02	 8.995E+02	 1.142E+03	 2.949E+01	 1.408E+03	 3.634E+02	 1.432E+02	 2.090E+01	 1.363E+02	 3.190E+01	-2.015E+03	-1.634E+03	 1.004E+04	-5.620E+02	 1.532E+03	 8.377E+00	 2.374E+01
 597.350	 2.443E+01	 1.254E+00	 3.410E-01	 9.472E+01	-8.677E+01	 6.363E+02	 7.801E+02	 1.178E+03	 2.806E+01	 1.393E+03	 2.394E+02	 1.447E+02	 2.090E+01	 1.320E+02	 3.266E+01	-1.998E+03	-1.794E+03	 1.001E+04	-8.613E+02	 1.532E+03	 8.377E+00	 2.375E+01
 597.400	 2.486E+01	 1.364E+00	-7.098E-01	 8.288E+01	-7.005E+01	 6.374E+02	 6.107E+02	 1.085E+03	 2.112E+01	 1.239E+03	 1.222E+02	 1.351E+02	 2.088E+01	 1.368E+02	 3.464E+01	-1.986E+03	-1.949E+03	 1.020E+04	-9.997E+02	 1.531E+03	 8.377E+00	 2.374E+01
 597.450	 2.506E+01	 9.182E-01	 1.783E-02	 8.676E+01	-6.810E+01	 6.379E+02	 5.135E+02	 1.105E+03	 2.432E+01	 1.218E+03	 2.535E+01	 1.352E+02	 2.086E+01	 1.322E+02	 3.916E+01	-2.023E+03	-2.122E+03	 1.027E+04	-8.840E+02	 1.530E+03	 8.377E+00	 2.373E+01
 597.500	 2.559E+01	-3.223E-01	 1.041E+00	 7.668E+01	-5.396E+01	 6.396E+02	 3.369E+02	 9.779E+02	 2.080E+01	 1.031E+03	-8.430E+01	 1.350E+02	 2.082E+01	 1.476E+02	 3.646E+01	-1.979E+03	-2.124E+03	 1.076E+04	-1.250E+03	 1.526E+03	 8.377E+00	 2.368E+01
 597.550	 2.500E+01	 4.495E-01	 5.406E-01	 9.182E+01	-6.184E+01	 6.395E+02	 3.157E+02	 1.055E+03	 3.044E+01	 1.093E+03	-1.336E+02	 1.384E+02	 2.075E+01	 1.410E+02	 3.986E+01	-2.011E+03	-2.211E+03	 1.085E+04	-1.041E+03	 1.521E+03	 8.377E+00	 2.362E+01
 597.600	 2.517E+01	-2.456E-02	 1.102E+00	 8.558E+01	-5.013E+01	 6.401E+02	 2.424E+02	 1.004E+03	 2.886E+01	 1.017E+03	-1.776E+02	 1.390E+02	 2.072E+01	 1.461E+02	 3.197E+01	-2.001E+03	-2.062E+03	 1.115E+04	-1.017E+03	 1.518E+03	 8.377E+00	 2.349E+01
 597.650	 2.377E+01	 7.900E-01	 8.332E-01	 8.194E+01	-4.327E+01	 6.391E+02	 1.685E+02	 9.508E+02	 2.860E+01	 9.392E+02	-2.243E+02	 1.242E+02	 2.072E+01	 1.413E+02	 3.329E+01	-2.012E+03	-2.072E+03	 1.127E+04	-8.926E+02	 1.519E+03	 8.377E+00	 2.348E+01
 597.700	 2.341E+01	 1.152E+00	 1.662E+00	 8.368E+01	-4.678E+01	 6.371E+02	 3.242E+01	 8.594E+02	 2.942E+01	 8.008E+02	-3.137E+02	 1.206E+02	 2.073E+01	 1.409E+02	 3.853E+01	-1.998E+03	-2.136E+03	 1.146E+04	-8.624E+02	 1.521E+03	 8.377E+00	 2.355E+01
 597.750	 2.439E+01	 3.222E-01	 1.346E+00	 5.680E+01	-7.244E+00	 6.351E+02	-2.414E+02	 6.830E+02	 1.743E+01	 5.293E+02	-4.946E+02	 1.118E+02	 2.073E+01	 1.435E+02	 3.958E+01	-2.025E+03	-2.085E+03	 1.175E+04	-5.080E+02	 1.521E+03	 8.377E+00	 2.359E+01
 597.800	 2.445E+01	 6.451E-01	 8.284E-01	 6.620E+01	-1.783E+01	 6.310E+02	-2.843E+02	 6.921E+02	 2.128E+01	 5.206E+02	-5.374E+02	 1.044E+02	 2.074E+01	 1.443E+02	 3.685E+01	-2.005E+03	-1.902E+03	 1.205E+04	-4.215E+02	 1.521E+03	 8.377E+00	 2.358E+01
 597.850	 2.393E+01	-5.156E-01	 1.343E+00	 6.978E+01	-9.275E+00	 6.284E+02	-3.940E+02	 7.483E+02	 2.419E+01	 5.285E+02	-6.602E+02	 1.188E+02	 2.073E+01	 1.527E+02	 2.804E+01	-2.008E+03	-1.565E+03	 1.252E+04	-2.945E+02	 1.519E+03	 8.377E+00	 2.355E+01
 597.900	 2.391E+01	-1.922E-01	 5.282E-01	 6.386E+01	-5.254E+00	 6.233E+02	-5.110E+02	 6.691E+02	 1.752E+01	 4.097E+02	-7.355E+02	 1.107E+02	 2.071E+01	 1.614E+02	 2.008E+01	-2.018E+03	-1.225E+03	 1.300E+04	-4.087E+01	 1.517E+03	 8.377E+00	 2.351E+01
 597.950	 2.393E+01	-4.240E-02	 1.013E+00	 8.214E+01	-1.244E+01	 6.212E+02	-6.093E+02	 8.149E+02	 2.716E+01	 5.038E+02	-8.841E+02	 1.351E+02	 2.071E+01	 1.756E+02	 1.852E+01	-1.993E+03	-1.014E+03	 1.356E+04	-4.352E+01	 1.518E+03	 8.377E+00	 2.354E+01
 598.000	 2.437E+01	 3.327E-01	 9.369E-01	 7.947E+01	 7.597E+00	 6.170E+02	-7.270E+02	 9.194E+02	 2.716E+01	 5.526E+02	-1.034E+03	 1.303E+02	 2.070E+01	 1.815E+02	 2.085E+01	-2.010E+03	-8.845E+02	 1.395E+04	-4.714E+01	 1.516E+03	 8.377E+00	 2.354E+01
 598.050	 2.509E+01	 4.842E-01	 1.637E+00	 7.961E+01	 7.932E+00	 6.106E+02	-8.345E+02	 9.289E+02	 2.193E+01	 5.187E+02	-1.136E+03	 1.358E+02	 2.070E+01	 1.825E+02	 1.916E+01	-2.021E+03	-6.558E+02	 1.419E+04	 1.121E+02	 1.516E+03	 8.377E+00	 2.352E+01
 598.100	 2.434E+01	-4.440E-01	 2.641E-01	 8.946E+01	 9.190E+00	 6.080E+02	-8.916E+02	 1.097E+03	 2.795E+01	 6.491E+02	-1.255E+03	 1.434E+02	 2.069E+01	 1.934E+02	 1.408E+01	-2.007E+03	-3.273E+02	 1.454E+04	-4.327E+01	 1.516E+03	 8.377E+00	 2.355E+01
 598.150	 2.403E+01	-5.302E-01	 8.089E-01	 7.381E+01	 2.995E+01	 6.020E+02	-1.145E+03	 1.030E+03	 9.717E+00	 4.864E+02	-1.461E+03	 1.540E+02	 2.071E+01	 1.862E+02	 1.095E+01	-2.039E+03	 1.055E+01	 1.447E+04	 2.195E+02	 1.517E+03	 8.377E+00	 2.356E+01
 598.200	 2.469E+01	-2.614E-01	 7.196E-01	 9.485E+01	 2.392E+01	 5.969E+02	-1.102E+03	 1.320E+03	 2.180E+01	 7.688E+02	-1.538E+03	 1.615E+02	 2.071E+01	 1.821E+02	 4.652E+00	-2.022E+03	 4.363E+02	 1.443E+04	-1.322E+02	 1.518E+03	 8.377E+00	 2.359E+01
 598.250	 2.510E+01	-1.287E-01	 5.326E-01	 9.259E+01	 3.589E+01	 5.917E+02	-1.219E+03	 1.400E+03	 1.618E+01	 7.938E+02	-1.678E+03	 1.661E+02	 2.072E+01	 1.788E+02	 9.442E-01	-2.035E+03	 8.188E+02	 1.442E+04	-1.504E+02	 1.519E+03	 8.377E+00	 2.363E+01
 598.300	 2.516E+01	-8.234E-01	 1.675E+00	 1.046E+02	 2.356E+01	 5.862E+02	-1.211E+03	 1.507E+03	 2.298E+01	 8.951E+02	-1.714E+03	 1.765E+02	 2.074E+01	 1.804E+02	-6.284E+00	-2.026E+03	 1.268E+03	 1.457E+04	-3.243E+02	 1.519E+03	 8.377E+00	 2.364E+01
 598.350	 2.552E+01	-2.554E-01	 2.134E+00	 1.066E+02	 2.709E+01	 5.817E+02	-1.266E+03	 1.575E+03	 2.419E+01	 9.330E+02	-1.792E+03	 1.939E+02	 2.077E+01	 1.906E+02	-1.285E+01	-2.040E+03	 1.693E+03	 1.495E+04	-3.707E+02	 1.521E+03	 8.377E+00	 2.370E+01
 598.400	 2.597E+01	 9.927E-01	 2.008E+00	 1.052E+02	 2.778E+01	 5.780E+02	-1.247E+03	 1.620E+03	 2.459E+01	 9.806E+02	-1.793E+03	 1.748E+02	 2.077E+01	 2.026E+02	-1.572E+01	-2.038E+03	 2.031E+03	 1.535E+04	-5.100E+02	 1.522E+03	 8.377E+00	 2.375E+01
 598.450	 2.616E+01	 1.374E+00	 1.516E+00	 1.079E+02	 1.794E+01	 5.764E+02	-1.165E+03	 1.655E+03	 2.565E+01	 1.048E+03	-1.732E+03	 1.557E+02	 2.073E+01	 2.046E+02	-2.229E+01	-2.021E+03	 2.424E+03	 1.546E+04	-5.325E+02	 1.520E+03	 8.377E+00	 2.369E+01
 598.500	 2.572E+01	 1.584E+00	 1.920E-02	 1.015E+02	 2.649E+01	 5.727E+02	-1.190E+03	 1.637E+03	 2.211E+01	 1.021E+03	-1.747E+03	 1.721E+02	 2.073E+01	 1.853E+02	-2.658E+01	-2.033E+03	 2.755E+03	 1.508E+04	-4.758E+02	 1.520E+03	 8.377E+00	 2.367E+01
 598.550	 2.544E+01	 2.379E+00	 1.390E-01	 1.058E+02	 2.026E+01	 5.720E+02	-1.061E+03	 1.690E+03	 2.356E+01	 1.121E+03	-1.651E+03	 1.688E+02	 2.074E+01	 1.726E+02	-3.214E+01	-2.027E+03	 3.056E+03	 1.485E+04	-4.596E+02	 1.521E+03	 8.377E+00	 2.370E+01
 598.600	 2.568E+01	 2.489E+00	 7.123E-01	 1.185E+02	 7.452E+00	 5.680E+02	-9.483E+02	 1.779E+03	 2.705E+01	 1.246E+03	-1.585E+03	 1.926E+02	 2.077E+01	 1.671E+02	-3.068E+01	-2.000E+03	 3.167E+03	 1.486E+04	-6.747E+02	 1.522E+03	 8.377E+00	 2.376E+01
 598.650	 2.493E+01	 1.507E+00	 4.375E-01	 9.575E+01	 2.174E+01	 5.644E+02	-8.701E+02	 1.599E+03	 1.872E+01	 1.112E+03	-1.442E+03	 1.686E+02	 2.079E+01	 1.724E+02	-3.055E+01	-2.019E+03	 3.243E+03	 1.525E+04	-5.484E+02	 1.523E+03	 8.377E+00	 2.380E+01
 598.700	 2.481E+01	 2.545E+00	 5.233E-01	 9.218E+01	 1.409E+01	 5.620E+02	-7.259E+02	 1.504E+03	 2.171E+01	 1.082E+03	-1.272E+03	 1.630E+02	 2.080E+01	 1.995E+02	-3.302E+01	-2.018E+03	 3.327E+03	 1.619E+04	-4.907E+02	 1.524E+03	 8.377E+00	 2.384E+01
 598.750	 2.469E+01	 3.288E+00	 3.725E-01	 8.442E+01	-1.026E-01	 5.601E+02	-5.962E+02	 1.275E+03	 2.543E+01	 9.252E+02	-1.061E+03	 1.566E+02	 2.080E+01	 2.248E+02	-3.764E+01	-2.003E+03	 3.408E+03	 1.709E+04	-3.969E+02	 1.524E+03	 8.377E+00	 2.384E+01
 598.800	 2.498E+01	 3.569E+00	-1.260E+00	 6.494E+01	 5.939E+00	 5.584E+02	-4.865E+02	 1.061E+03	 1.953E+01	 7.742E+02	-8.740E+02	 1.362E+02	 2.078E+01	 2.364E+02	-3.738E+01	-2.016E+03	 3.334E+03	 1.760E+04	-3.083E+02	 1.524E+03	 8.377E+00	 2.384E+01
 598.850	 2.562E+01	 3.893E+00	-1.747E+00	 5.986E+01	 2.708E+00	 5.578E+02	-3.679E+02	 9.609E+02	 1.869E+01	 7.295E+02	-7.256E+02	 1.388E+02	 2.081E+01	 2.352E+02	-3.240E+01	-2.011E+03	 3.079E+03	 1.768E+04	-3.145E+02	 1.527E+03	 8.377E+00	 2.390E+01
 598.900	 2.464E+01	 3.497E+00	-2.195E+00	 6.422E+01	-1.455E+01	 5.580E+02	-1.372E+02	 9.433E+02	 2.042E+01	 8.063E+02	-5.084E+02	 1.380E+02	 2.084E+01	 2.311E+02	-2.743E+01	-2.020E+03	 2.733E+03	 1.757E+04	-1.701E+02	 1.529E+03	 8.377E+00	 2.396E+01
 598.950	 2.460E+01	 3.155E+00	-1.295E+00	 5.708E+01	-6.237E+00	 5.574E+02	-1.244E+01	 9.571E+02	 1.601E+01	 8.693E+02	-4.006E+02	 1.568E+02	 2.086E+01	 2.226E+02	-1.844E+01	-2.006E+03	 2.260E+03	 1.729E+04	-3.635E+02	 1.529E+03	 8.377E+00	 2.400E+01
 599.000	 2.422E+01	 2.969E+00	-1.167E+00	 6.867E+01	-2.994E+01	 5.568E+02	 2.503E+02	 1.020E+03	 1.733E+01	 1.033E+03	-1.877E+02	 1.447E+02	 2.089E+01	 2.210E+02	-9.754E+00	-2.022E+03	 1.757E+03	 1.710E+04	-2.278E+02	 1.532E+03	 8.377E+00	 2.408E+01
 599.050	 2.352E+01	 2.893E+00	-1.159E+00	 6.381E+01	-3.229E+01	 5.557E+02	 4.220E+02	 1.032E+03	 1.388E+01	 1.114E+03	-3.635E+01	 1.495E+02	 2.094E+01	 2.178E+02	-6.113E+00	-2.004E+03	 1.338E+03	 1.681E+04	-5.687E+02	 1.535E+03	 8.377E+00	 2.411E+01
 599.100	 2.316E+01	 1.423E+00	-1.106E+00	 7.444E+01	-5.565E+01	 5.535E+02	 5.996E+02	 1.052E+03	 1.447E+01	 1.206E+03	 1.163E+02	 1.623E+02	 2.096E+01	 2.116E+02	-2.829E+00	-1.998E+03	 9.161E+02	 1.640E+04	-7.088E+02	 1.537E+03	 8.377E+00	 2.417E+01
 599.150	 2.378E+01	 1.509E+00	-7.527E-02	 8.143E+01	-7.270E+01	 5.520E+02	 7.840E+02	 1.078E+03	 2.182E+01	 1.304E+03	 2.736E+02	 1.629E+02	 2.096E+01	 2.029E+02	 3.697E-01	-2.010E+03	 4.977E+02	 1.587E+04	-8.362E+02	 1.536E+03	 8.377E+00	 2.419E+01
 599.200	 2.312E+01	 1.796E+00	 4.970E-02	 6.992E+01	-6.833E+01	 5.523E+02	 8.511E+02	 9.801E+02	 1.748E+01	 1.243E+03	 3.745E+02	 1.489E+02	 2.093E+01	 1.847E+02	 1.040E+01	-2.025E+03	-4.210E+01	 1.515E+04	-7.319E+02	 1.534E+03	 8.377E+00	 2.420E+01
 599.250	 2.358E+01	 2.593E+00	-4.274E-01	 7.821E+01	-8.251E+01	 5.521E+02	 1.013E+03	 1.038E+03	 2.394E+01	 1.362E+03	 4.993E+02	 1.422E+02	 2.090E+01	 1.863E+02	 1.500E+01	-2.027E+03	-4.782E+02	 1.481E+04	-7.422E+02	 1.533E+03	 8.377E+00	 2.419E+01
 599.300	 2.409E+01	 1.978E+00	-1.636E+00	 7.759E+01	-8.184E+01	 5.539E+02	 1.084E+03	 1.054E+03	 2.488E+01	 1.404E+03	 5.589E+02	 1.572E+02	 2.087E+01	 1.800E+02	 1.980E+01	-2.024E+03	-9.107E+02	 1.431E+04	-7.666E+02	 1.529E+03	 8.377E+00	 2.411E+01
 599.350	 2.421E+01	 3.670E+00	-1.203E+00	 7.242E+01	-9.117E+01	 5.539E+02	 1.181E+03	 9.747E+02	 1.608E+01	 1.372E+03	 6.791E+02	 1.284E+02	 2.087E+01	 1.776E+02	 2.498E+01	-2.003E+03	-1.361E+03	 1.382E+04	-8.348E+02	 1.529E+03	 8.377E+00	 2.414E+01
 599.400	 2.358E+01	 4.359E+00	-4.935E-01	 8.113E+01	-1.034E+02	 5.554E+02	 1.336E+03	 1.042E+03	 2.152E+01	 1.497E+03	 7.938E+02	 1.216E+02	 2.086E+01	 1.580E+02	 3.339E+01	-2.017E+03	-1.856E+03	 1.292E+04	-5.682E+02	 1.530E+03	 8.377E+00	 2.412E+01
 599.450	 2.269E+01	 4.070E+00	 1.704E-01	 8.132E+01	-1.052E+02	 5.599E+02	 1.380E+03	 1.034E+03	 2.244E+01	 1.508E+03	 8.374E+02	 1.305E+02	 2.086E+01	 1.302E+02	 3.993E+01	-2.022E+03	-2.264E+03	 1.187E+04	-4.266E+02	 1.530E+03	 8.377E+00	 2.411E+01
 599.500	 2.271E+01	 4.611E+00	-4.597E-01	 8.195E+01	-1.185E+02	 5.606E+02	 1.425E+03	 9.424E+02	 2.141E+01	 1.443E+03	 9.150E+02	 1.091E+02	 2.085E+01	 1.262E+02	 4.403E+01	-2.024E+03	-2.564E+03	 1.138E+04	-3.441E+02	 1.529E+03	 8.377E+00	 2.415E+01
 599.550	 2.269E+01	 5.239E+00	-1.877E+00	 7.324E+01	-1.137E+02	 5.669E+02	 1.401E+03	 8.401E+02	 2.272E+01	 1.340E+03	 9.352E+02	 1.127E+02	 2.084E+01	 1.252E+02	 4.197E+01	-2.015E+03	-2.676E+03	 1.108E+04	-3.601E+02	 1.528E+03	 8.377E+00	 2.414E+01
 599.600	 2.251E+01	 4.098E+00	-1.594E-01	 6.535E+01	-1.127E+02	 5.729E+02	 1.350E+03	 7.073E+02	 2.232E+01	 1.198E+03	 9.428E+02	 1.010E+02	 2.083E+01	 1.358E+02	 4.233E+01	-2.017E+03	-2.802E+03	 1.108E+04	-3.810E+02	 1.528E+03	 8.377E+00	 2.415E+01
 599.650	 2.399E+01	 4.689E+00	-4.731E-02	 5.566E+01	-1.010E+02	 5.797E+02	 1.324E+03	 6.606E+02	 1.876E+01	 1.143E+03	 9.389E+02	 9.161E+01	 2.079E+01	 1.417E+02	 4.336E+01	-1.999E+03	-2.926E+03	 1.096E+04	-2.881E+02	 1.526E+03	 8.377E+00	 2.408E+01
 599.700	 2.443E+01	 4.364E+00	-3.303E-01	 5.947E+01	-1.036E+02	 5.865E+02	 1.310E+03	 6.758E+02	 2.181E+01	 1.151E+03	 9.207E+02	 9.927E+01	 2.077E+01	 1.405E+02	 4.736E+01	-1.999E+03	-3.094E+03	 1.061E+04	-2.126E+02	 1.523E+03	 8.377E+00	 2.406E+01
 599.750	 2.461E+01	 5.322E+00	-1.125E+00	 6.490E+01	-1.127E+02	 5.926E+02	 1.388E+03	 7.488E+02	 2.067E+01	 1.250E+03	 9.626E+02	 8.483E+01	 2.075E+01	 1.239E+02	 5.042E+01	-2.020E+03	-3.215E+03	 9.911E+03	 6.272E+01	 1.522E+03	 8.377E+00	 2.405E+01
 599.800	 2.539E+01	 5.655E+00	-1.317E+00	 7.482E+01	-1.112E+02	 5.988E+02	 1.429E+03	 9.245E+02	 2.046E+01	 1.426E+03	 9.279E+02	 9.974E+01	 2.073E+01	 1.110E+02	 5.429E+01	-2.013E+03	-3.295E+03	 9.253E+03	 2.471E+02	 1.522E+03	 8.377E+00	 2.405E+01
 599.850	 2.452E+01	 3.898E+00	-8.127E-01	 9.260E+01	-1.214E+02	 6.046E+02	 1.427E+03	 1.084E+03	 2.821E+01	 1.572E+03	 8.598E+02	 1.421E+02	 2.077E+01	 1.016E+02	 5.518E+01	-2.019E+03	-3.254E+03	 8.735E+03	 2.242E+02	 1.523E+03	 8.377E+00	 2.411E+01
 599.900	 2.563E+01	 4.339E+00	-1.388E+00	 8.862E+01	-1.286E+02	 6.088E+02	 1.476E+03	 1.054E+03	 2.257E+01	 1.566E+03	 9.150E+02	 1.220E+02	 2.083E+01	 1.053E+02	 4.743E+01	-2.041E+03	-2.988E+03	 8.604E+03	 3.257E+02	 1.526E+03	 8.377E+00	 2.417E+01
 599.950	 2.545E+01	 4.062E+00	-8.318E-01	 8.584E+01	-1.252E+02	 6.140E+02	 1.438E+03	 1.029E+03	 2.379E+01	 1.529E+03	 8.891E+02	 1.178E+02	 2.083E+01	 1.058E+02	 4.264E+01	-2.042E+03	-2.715E+03	 8.481E+03	 2.002E+02	 1.528E+03	 8.377E+00	 2.424E+01
 600.000	 2.596E+01	 5.148E+00	-7.225E-01	 6.902E+01	-1.081E+02	 6.184E+02	 1.220E+03	 8.323E+02	 1.629E+01	 1.259E+03	 7.711E+02	 1.161E+02	 2.081E+01	 1.149E+02	 4.153E+01	-2.028E+03	-2.467E+03	 8.504E+03	 4.702E+01	 1.526E+03	 8.377E+00	 2.421E+01
