
These predictions were generated by FAST (v7.01.00a-bjj, 16-Feb-2012) on 04-Oct-2016 at 12:11:25.
The aerodynamic calculations were made by AeroDyn (v13.00.01a-bjj, 16-Feb-2012).

 Test file with data from WindPACT 1.5 MW turbine. LVT July 2014

Time	WindVxi	WindVyi	WindVzi	RootFxc2	RootFyc2	RootFzc2	RootMxc2	RootMyc2	RootMzc2	RootMFlp2	RootMedg2	RotThrust	RotSpeed	TwrBsFxt	TwrBsFyt	TwrBsFzt	TwrBsMxt	TwrBsMyt	TwrBsMzt	GenPwr	GenTq	BldPitch2
(s)	(m/s)	(m/s)	(m/s)	(kN)	(kN)	(kN)	(kN·m)	(kN·m)	(kN·m)	(kN·m)	(kN·m)	(kN)	(rpm)	(kN)	(kN)	(kN)	(kN·m)	(kN·m)	(kN·m)	(kW)	(kN·m)	(deg)
  60.000	 1.008E+01	-1.533E+00	-1.598E-01	 9.453E+01	 5.110E+01	 5.357E+02	-9.224E+02	 2.265E+03	 4.401E+01	 2.069E+03	-1.305E+03	 2.070E+02	 2.035E+01	 2.238E+02	 1.691E+01	-2.022E+03	-4.865E+02	 1.823E+04	 6.025E+02	 1.475E+03	 8.281E+00	 1.009E+01
  60.050	 9.840E+00	-1.665E+00	-3.873E-01	 1.057E+02	 4.137E+01	 5.319E+02	-8.095E+02	 2.378E+03	 4.690E+01	 2.197E+03	-1.218E+03	 2.119E+02	 2.038E+01	 2.176E+02	 1.754E+01	-2.023E+03	-5.138E+02	 1.798E+04	 6.009E+02	 1.481E+03	 8.306E+00	 1.020E+01
  60.100	 9.741E+00	-1.972E+00	 4.608E-02	 1.003E+02	 3.633E+01	 5.277E+02	-7.247E+02	 2.350E+03	 4.343E+01	 2.183E+03	-1.132E+03	 2.063E+02	 2.040E+01	 2.096E+02	 1.787E+01	-2.022E+03	-4.987E+02	 1.776E+04	 5.822E+02	 1.486E+03	 8.322E+00	 1.026E+01
  60.150	 9.544E+00	-2.076E+00	-2.268E-01	 1.031E+02	 3.173E+01	 5.228E+02	-6.232E+02	 2.425E+03	 4.630E+01	 2.276E+03	-1.044E+03	 2.101E+02	 2.039E+01	 2.157E+02	 1.498E+01	-2.029E+03	-3.860E+02	 1.791E+04	 6.267E+02	 1.484E+03	 8.315E+00	 1.024E+01
  60.200	 9.573E+00	-2.039E+00	-5.117E-01	 1.012E+02	 2.358E+01	 5.193E+02	-5.178E+02	 2.406E+03	 4.330E+01	 2.277E+03	-9.351E+02	 1.979E+02	 2.037E+01	 2.241E+02	 1.127E+01	-2.035E+03	-2.311E+02	 1.816E+04	 7.226E+02	 1.480E+03	 8.300E+00	 1.018E+01
  60.250	 9.765E+00	-1.769E+00	-8.677E-02	 1.024E+02	 1.690E+01	 5.157E+02	-4.000E+02	 2.437E+03	 4.189E+01	 2.329E+03	-8.224E+02	 1.998E+02	 2.034E+01	 2.280E+02	 7.537E+00	-2.037E+03	-6.646E+01	 1.829E+04	 7.243E+02	 1.473E+03	 8.274E+00	 1.013E+01
  60.300	 9.788E+00	-2.385E+00	 3.565E-01	 1.102E+02	 1.023E+01	 5.123E+02	-2.571E+02	 2.537E+03	 4.467E+01	 2.454E+03	-6.946E+02	 2.042E+02	 2.030E+01	 2.297E+02	 6.169E+00	-2.033E+03	 4.873E+01	 1.834E+04	 7.807E+02	 1.465E+03	 8.245E+00	 1.002E+01
  60.350	 9.945E+00	-2.430E+00	 2.026E-01	 1.098E+02	 5.016E+00	 5.105E+02	-1.230E+02	 2.569E+03	 3.982E+01	 2.509E+03	-5.647E+02	 2.044E+02	 2.028E+01	 2.228E+02	 6.365E+00	-2.036E+03	 1.246E+02	 1.819E+04	 8.722E+02	 1.460E+03	 8.228E+00	 9.941E+00
  60.400	 9.859E+00	-2.620E+00	 1.530E-01	 1.150E+02	-4.482E+00	 5.095E+02	 3.150E+01	 2.621E+03	 3.701E+01	 2.587E+03	-4.205E+02	 2.028E+02	 2.029E+01	 2.168E+02	 6.757E+00	-2.031E+03	 1.927E+02	 1.807E+04	 9.764E+02	 1.461E+03	 8.229E+00	 9.922E+00
  60.450	 9.772E+00	-2.458E+00	 2.993E-01	 1.136E+02	-8.945E+00	 5.088E+02	 1.588E+02	 2.645E+03	 3.283E+01	 2.632E+03	-3.012E+02	 2.172E+02	 2.031E+01	 2.120E+02	 6.647E+00	-2.035E+03	 2.777E+02	 1.802E+04	 9.964E+02	 1.466E+03	 8.248E+00	 9.964E+00
  60.500	 9.891E+00	-2.621E+00	 7.290E-01	 1.196E+02	-2.216E+01	 5.090E+02	 3.420E+02	 2.699E+03	 3.184E+01	 2.718E+03	-1.330E+02	 2.110E+02	 2.035E+01	 2.210E+02	 3.827E+00	-2.033E+03	 4.225E+02	 1.833E+04	 1.027E+03	 1.474E+03	 8.279E+00	 1.002E+01
  60.550	 9.903E+00	-2.534E+00	 7.539E-01	 1.166E+02	-2.675E+01	 5.098E+02	 4.837E+02	 2.727E+03	 2.832E+01	 2.770E+03	-3.446E+00	 2.152E+02	 2.039E+01	 2.312E+02	 1.126E+00	-2.028E+03	 5.743E+02	 1.869E+04	 8.035E+02	 1.483E+03	 8.312E+00	 1.013E+01
  60.600	 9.967E+00	-2.422E+00	 7.683E-01	 1.152E+02	-3.656E+01	 5.110E+02	 6.243E+02	 2.700E+03	 2.463E+01	 2.768E+03	 1.357E+02	 2.003E+02	 2.041E+01	 2.381E+02	-5.128E-01	-2.028E+03	 7.052E+02	 1.897E+04	 6.865E+02	 1.488E+03	 8.330E+00	 1.021E+01
  60.650	 9.694E+00	-2.160E+00	 5.060E-01	 1.081E+02	-4.081E+01	 5.132E+02	 7.385E+02	 2.649E+03	 1.836E+01	 2.738E+03	 2.552E+02	 1.955E+02	 2.042E+01	 2.355E+02	-1.990E+00	-2.019E+03	 8.240E+02	 1.900E+04	 5.801E+02	 1.490E+03	 8.338E+00	 1.025E+01
  60.700	 9.513E+00	-2.434E+00	 7.227E-01	 1.125E+02	-5.203E+01	 5.150E+02	 9.014E+02	 2.679E+03	 1.669E+01	 2.796E+03	 4.132E+02	 1.919E+02	 2.039E+01	 2.317E+02	-4.796E+00	-2.019E+03	 9.537E+02	 1.896E+04	 5.848E+02	 1.485E+03	 8.321E+00	 1.019E+01
  60.750	 9.654E+00	-2.729E+00	 1.059E-01	 1.166E+02	-6.020E+01	 5.174E+02	 1.058E+03	 2.728E+03	 1.442E+01	 2.871E+03	 5.608E+02	 1.905E+02	 2.037E+01	 2.282E+02	-5.436E+00	-2.020E+03	 1.026E+03	 1.893E+04	 6.919E+02	 1.481E+03	 8.305E+00	 1.015E+01
  60.800	 9.878E+00	-3.066E+00	 2.647E-01	 1.148E+02	-6.463E+01	 5.200E+02	 1.168E+03	 2.733E+03	 7.347E+00	 2.895E+03	 6.717E+02	 2.069E+02	 2.034E+01	 2.289E+02	-4.551E+00	-2.016E+03	 1.056E+03	 1.902E+04	 6.421E+02	 1.475E+03	 8.282E+00	 1.007E+01
  60.850	 1.017E+01	-3.121E+00	 6.406E-01	 1.243E+02	-7.472E+01	 5.216E+02	 1.328E+03	 2.827E+03	 7.115E+00	 3.015E+03	 8.157E+02	 2.018E+02	 2.033E+01	 2.386E+02	-4.002E+00	-2.022E+03	 1.083E+03	 1.932E+04	 7.630E+02	 1.473E+03	 8.275E+00	 1.003E+01
  60.900	 1.048E+01	-2.903E+00	 3.516E-01	 1.295E+02	-8.448E+01	 5.252E+02	 1.456E+03	 2.850E+03	 2.832E+00	 3.060E+03	 9.389E+02	 2.126E+02	 2.034E+01	 2.448E+02	-4.386E+00	-2.026E+03	 1.128E+03	 1.955E+04	 7.797E+02	 1.472E+03	 8.272E+00	 1.000E+01
  60.950	 1.022E+01	-2.708E+00	 4.238E-01	 1.331E+02	-9.035E+01	 5.286E+02	 1.573E+03	 2.900E+03	 9.062E-02	 3.130E+03	 1.042E+03	 2.206E+02	 2.036E+01	 2.491E+02	-5.122E+00	-2.028E+03	 1.184E+03	 1.969E+04	 7.564E+02	 1.476E+03	 8.287E+00	 1.005E+01
  61.000	 1.016E+01	-2.638E+00	 3.153E-01	 1.231E+02	-8.765E+01	 5.333E+02	 1.644E+03	 2.865E+03	-7.169E+00	 3.109E+03	 1.117E+03	 2.136E+02	 2.038E+01	 2.485E+02	-5.706E+00	-2.023E+03	 1.243E+03	 1.966E+04	 6.324E+02	 1.482E+03	 8.310E+00	 1.010E+01
  61.050	 1.012E+01	-2.949E+00	-2.168E-02	 1.327E+02	-9.917E+01	 5.372E+02	 1.738E+03	 2.899E+03	-6.236E+00	 3.161E+03	 1.199E+03	 2.155E+02	 2.041E+01	 2.362E+02	-6.812E+00	-2.034E+03	 1.314E+03	 1.935E+04	 6.829E+02	 1.489E+03	 8.334E+00	 1.017E+01
  61.100	 1.039E+01	-3.156E+00	 8.800E-02	 1.207E+02	-9.501E+01	 5.422E+02	 1.770E+03	 2.831E+03	-1.068E+01	 3.100E+03	 1.240E+03	 2.036E+02	 2.042E+01	 2.245E+02	-7.527E+00	-2.026E+03	 1.382E+03	 1.907E+04	 6.758E+02	 1.492E+03	 8.345E+00	 1.021E+01
  61.150	 1.043E+01	-3.165E+00	 4.423E-01	 1.266E+02	-9.995E+01	 5.458E+02	 1.797E+03	 2.862E+03	-8.737E+00	 3.136E+03	 1.261E+03	 2.146E+02	 2.042E+01	 2.243E+02	-8.568E+00	-2.030E+03	 1.458E+03	 1.907E+04	 7.024E+02	 1.491E+03	 8.344E+00	 1.023E+01
  61.200	 1.032E+01	-2.683E+00	 8.216E-01	 1.284E+02	-1.030E+02	 5.504E+02	 1.817E+03	 2.855E+03	-7.768E+00	 3.131E+03	 1.282E+03	 2.111E+02	 2.042E+01	 2.338E+02	-1.110E+01	-2.037E+03	 1.557E+03	 1.934E+04	 7.393E+02	 1.490E+03	 8.337E+00	 1.020E+01
  61.250	 1.010E+01	-2.708E+00	 7.297E-01	 1.249E+02	-1.011E+02	 5.552E+02	 1.809E+03	 2.828E+03	-7.674E+00	 3.103E+03	 1.280E+03	 2.035E+02	 2.041E+01	 2.389E+02	-1.272E+01	-2.035E+03	 1.623E+03	 1.953E+04	 7.931E+02	 1.488E+03	 8.331E+00	 1.019E+01
  61.300	 1.021E+01	-2.732E+00	 2.921E-01	 1.232E+02	-9.924E+01	 5.594E+02	 1.768E+03	 2.810E+03	-8.452E+00	 3.078E+03	 1.245E+03	 2.047E+02	 2.040E+01	 2.425E+02	-1.317E+01	-2.034E+03	 1.644E+03	 1.965E+04	 8.359E+02	 1.485E+03	 8.321E+00	 1.015E+01
  61.350	 1.049E+01	-2.833E+00	 6.091E-01	 1.291E+02	-9.582E+01	 5.639E+02	 1.740E+03	 2.882E+03	-3.265E+00	 3.143E+03	 1.206E+03	 2.061E+02	 2.039E+01	 2.380E+02	-1.199E+01	-2.034E+03	 1.613E+03	 1.958E+04	 9.891E+02	 1.484E+03	 8.318E+00	 1.013E+01
  61.400	 1.054E+01	-2.826E+00	 7.265E-01	 1.244E+02	-9.416E+01	 5.692E+02	 1.661E+03	 2.806E+03	-7.895E+00	 3.054E+03	 1.142E+03	 2.074E+02	 2.040E+01	 2.358E+02	-1.175E+01	-2.034E+03	 1.584E+03	 1.954E+04	 9.351E+02	 1.485E+03	 8.320E+00	 1.012E+01
  61.450	 1.059E+01	-3.048E+00	 8.902E-01	 1.233E+02	-8.605E+01	 5.730E+02	 1.574E+03	 2.802E+03	-3.410E+00	 3.036E+03	 1.055E+03	 2.136E+02	 2.041E+01	 2.394E+02	-1.128E+01	-2.027E+03	 1.537E+03	 1.965E+04	 9.221E+02	 1.488E+03	 8.330E+00	 1.016E+01
  61.500	 1.065E+01	-2.949E+00	 1.104E+00	 1.146E+02	-7.992E+01	 5.770E+02	 1.455E+03	 2.677E+03	-2.896E+00	 2.893E+03	 9.589E+02	 2.050E+02	 2.043E+01	 2.497E+02	-1.096E+01	-2.029E+03	 1.476E+03	 1.992E+04	 7.895E+02	 1.492E+03	 8.347E+00	 1.019E+01
  61.550	 1.029E+01	-2.674E+00	 7.490E-01	 1.180E+02	-7.784E+01	 5.819E+02	 1.335E+03	 2.614E+03	 3.926E+00	 2.809E+03	 8.484E+02	 2.072E+02	 2.045E+01	 2.570E+02	-8.526E+00	-2.028E+03	 1.359E+03	 2.011E+04	 6.361E+02	 1.497E+03	 8.364E+00	 1.025E+01
  61.600	 1.012E+01	-2.902E+00	 1.121E+00	 9.714E+01	-6.197E+01	 5.848E+02	 1.144E+03	 2.416E+03	 3.148E+00	 2.582E+03	 6.947E+02	 2.007E+02	 2.045E+01	 2.628E+02	-7.126E+00	-2.020E+03	 1.238E+03	 2.016E+04	 4.422E+02	 1.498E+03	 8.368E+00	 1.028E+01
  61.650	 9.546E+00	-2.913E+00	 8.982E-01	 9.527E+01	-5.709E+01	 5.882E+02	 9.967E+02	 2.329E+03	 8.010E+00	 2.469E+03	 5.661E+02	 1.949E+02	 2.044E+01	 2.515E+02	-4.269E+00	-2.020E+03	 1.079E+03	 1.976E+04	 4.063E+02	 1.495E+03	 8.358E+00	 1.025E+01
  61.700	 9.457E+00	-2.864E+00	 9.817E-01	 9.720E+01	-5.205E+01	 5.916E+02	 8.468E+02	 2.287E+03	 1.349E+01	 2.401E+03	 4.270E+02	 2.022E+02	 2.044E+01	 2.339E+02	-2.098E+00	-2.016E+03	 9.249E+02	 1.916E+04	 3.525E+02	 1.494E+03	 8.354E+00	 1.023E+01
  61.750	 9.792E+00	-2.071E+00	 6.118E-01	 8.918E+01	-3.819E+01	 5.947E+02	 6.779E+02	 2.231E+03	 1.654E+01	 2.316E+03	 2.711E+02	 2.061E+02	 2.043E+01	 2.240E+02	-7.957E-01	-2.016E+03	 7.816E+02	 1.873E+04	 4.009E+02	 1.492E+03	 8.345E+00	 1.022E+01
  61.800	 1.009E+01	-1.565E+00	 4.362E-01	 8.960E+01	-3.479E+01	 5.981E+02	 5.327E+02	 2.178E+03	 1.843E+01	 2.238E+03	 1.381E+02	 1.955E+02	 2.043E+01	 2.181E+02	 2.112E+00	-2.017E+03	 6.120E+02	 1.846E+04	 2.617E+02	 1.491E+03	 8.343E+00	 1.021E+01
  61.850	 1.018E+01	-1.829E+00	 7.774E-01	 7.978E+01	-2.083E+01	 6.011E+02	 3.539E+02	 2.101E+03	 1.955E+01	 2.131E+03	-2.414E+01	 1.932E+02	 2.043E+01	 2.266E+02	 3.725E+00	-2.027E+03	 4.723E+02	 1.853E+04	 3.689E+02	 1.493E+03	 8.349E+00	 1.021E+01
  61.900	 1.029E+01	-1.717E+00	 5.555E-01	 8.982E+01	-1.364E+01	 6.035E+02	 2.062E+02	 2.179E+03	 2.770E+01	 2.181E+03	-1.838E+02	 2.103E+02	 2.044E+01	 2.308E+02	 5.544E+00	-2.026E+03	 3.399E+02	 1.852E+04	 3.540E+02	 1.494E+03	 8.356E+00	 1.022E+01
  61.950	 1.025E+01	-1.858E+00	 7.036E-01	 8.225E+01	-3.831E+00	 6.057E+02	 3.778E+01	 2.101E+03	 2.657E+01	 2.074E+03	-3.369E+02	 1.978E+02	 2.045E+01	 2.316E+02	 7.590E+00	-2.024E+03	 2.164E+02	 1.842E+04	 2.485E+02	 1.497E+03	 8.366E+00	 1.026E+01
  62.000	 9.941E+00	-1.643E+00	 5.849E-01	 9.318E+01	-4.237E-01	 6.065E+02	-1.078E+02	 2.125E+03	 3.435E+01	 2.072E+03	-4.849E+02	 2.172E+02	 2.045E+01	 2.226E+02	 9.051E+00	-2.029E+03	 1.215E+02	 1.806E+04	 2.776E+02	 1.497E+03	 8.367E+00	 1.027E+01
  62.050	 9.763E+00	-1.550E+00	 5.601E-01	 8.204E+01	 8.812E+00	 6.070E+02	-2.463E+02	 2.013E+03	 3.256E+01	 1.937E+03	-6.011E+02	 1.983E+02	 2.045E+01	 2.110E+02	 8.581E+00	-2.033E+03	 8.254E+01	 1.764E+04	 2.654E+02	 1.497E+03	 8.367E+00	 1.027E+01
  62.100	 9.438E+00	-1.444E+00	 2.240E-01	 8.239E+01	 1.388E+01	 6.059E+02	-3.814E+02	 1.956E+03	 3.519E+01	 1.857E+03	-7.233E+02	 1.927E+02	 2.044E+01	 2.014E+02	 8.758E+00	-2.034E+03	 4.811E+01	 1.730E+04	 3.946E+02	 1.496E+03	 8.360E+00	 1.024E+01
  62.150	 9.497E+00	-1.676E+00	 3.242E-01	 7.585E+01	 2.813E+01	 6.052E+02	-5.354E+02	 1.923E+03	 3.596E+01	 1.798E+03	-8.682E+02	 1.940E+02	 2.043E+01	 2.051E+02	 8.528E+00	-2.032E+03	 2.705E+01	 1.729E+04	 4.543E+02	 1.493E+03	 8.351E+00	 1.022E+01
  62.200	 9.151E+00	-1.876E+00	 1.154E-01	 7.129E+01	 3.458E+01	 6.046E+02	-6.488E+02	 1.850E+03	 3.455E+01	 1.706E+03	-9.661E+02	 1.922E+02	 2.043E+01	 2.100E+02	 7.754E+00	-2.040E+03	 1.590E+01	 1.734E+04	 5.813E+02	 1.492E+03	 8.348E+00	 1.020E+01
  62.250	 9.737E+00	-1.238E+00	 7.150E-01	 7.217E+01	 3.831E+01	 6.024E+02	-7.350E+02	 1.833E+03	 3.640E+01	 1.673E+03	-1.048E+03	 1.823E+02	 2.043E+01	 2.115E+02	 8.314E+00	-2.033E+03	-2.384E+01	 1.734E+04	 5.807E+02	 1.494E+03	 8.353E+00	 1.020E+01
  62.300	 9.826E+00	-1.289E+00	 3.587E-01	 7.259E+01	 4.319E+01	 6.004E+02	-8.525E+02	 1.792E+03	 3.675E+01	 1.612E+03	-1.157E+03	 1.908E+02	 2.044E+01	 2.144E+02	 1.067E+01	-2.031E+03	-9.304E+01	 1.733E+04	 7.028E+02	 1.496E+03	 8.360E+00	 1.022E+01
  62.350	 1.012E+01	-1.373E+00	 1.214E-01	 7.357E+01	 4.848E+01	 5.973E+02	-9.543E+02	 1.798E+03	 3.788E+01	 1.599E+03	-1.259E+03	 2.031E+02	 2.046E+01	 2.068E+02	 1.218E+01	-2.033E+03	-1.332E+02	 1.711E+04	 8.584E+02	 1.498E+03	 8.369E+00	 1.026E+01
  62.400	 9.839E+00	-1.275E+00	 1.842E-01	 7.696E+01	 5.258E+01	 5.944E+02	-1.019E+03	 1.874E+03	 3.905E+01	 1.661E+03	-1.338E+03	 2.092E+02	 2.048E+01	 1.998E+02	 1.088E+01	-2.031E+03	-1.033E+02	 1.694E+04	 8.514E+02	 1.501E+03	 8.377E+00	 1.030E+01
  62.450	 9.389E+00	-1.246E+00	 3.062E-01	 8.050E+01	 5.814E+01	 5.910E+02	-1.067E+03	 1.964E+03	 4.258E+01	 1.741E+03	-1.402E+03	 2.050E+02	 2.048E+01	 2.015E+02	 9.889E+00	-2.029E+03	-6.492E+01	 1.703E+04	 7.326E+02	 1.501E+03	 8.377E+00	 1.033E+01
  62.500	 9.698E+00	-1.462E+00	-1.363E-01	 8.741E+01	 5.848E+01	 5.874E+02	-1.106E+03	 2.057E+03	 4.542E+01	 1.825E+03	-1.458E+03	 2.046E+02	 2.049E+01	 2.151E+02	 8.000E+00	-2.023E+03	-8.423E+00	 1.742E+04	 5.866E+02	 1.502E+03	 8.377E+00	 1.037E+01
  62.550	 9.827E+00	-1.601E+00	 1.781E-02	 8.214E+01	 6.129E+01	 5.827E+02	-1.142E+03	 2.045E+03	 4.189E+01	 1.806E+03	-1.491E+03	 1.913E+02	 2.048E+01	 2.232E+02	 7.938E+00	-2.028E+03	 8.407E+00	 1.772E+04	 5.126E+02	 1.502E+03	 8.377E+00	 1.036E+01
  62.600	 9.183E+00	-1.551E+00	 9.624E-02	 9.413E+01	 6.156E+01	 5.766E+02	-1.153E+03	 2.190E+03	 4.904E+01	 1.949E+03	-1.526E+03	 2.052E+02	 2.046E+01	 2.287E+02	 8.232E+00	-2.026E+03	 1.169E+01	 1.791E+04	 3.502E+02	 1.499E+03	 8.374E+00	 1.030E+01
  62.650	 9.022E+00	-1.733E+00	-3.497E-01	 8.229E+01	 6.328E+01	 5.724E+02	-1.171E+03	 2.093E+03	 4.133E+01	 1.852E+03	-1.524E+03	 1.840E+02	 2.043E+01	 2.268E+02	 8.483E+00	-2.026E+03	 1.246E+01	 1.789E+04	 4.009E+02	 1.494E+03	 8.352E+00	 1.022E+01
  62.700	 9.271E+00	-1.052E+00	-6.326E-01	 8.696E+01	 6.271E+01	 5.663E+02	-1.162E+03	 2.144E+03	 4.328E+01	 1.905E+03	-1.523E+03	 1.938E+02	 2.042E+01	 2.157E+02	 9.645E+00	-2.025E+03	 2.656E+00	 1.764E+04	 3.533E+02	 1.491E+03	 8.341E+00	 1.018E+01
  62.750	 9.438E+00	-1.012E+00	-9.288E-02	 9.801E+01	 5.798E+01	 5.602E+02	-1.105E+03	 2.253E+03	 4.942E+01	 2.022E+03	-1.486E+03	 1.972E+02	 2.043E+01	 2.071E+02	 9.485E+00	-2.018E+03	 2.911E+01	 1.746E+04	 2.059E+02	 1.491E+03	 8.344E+00	 1.018E+01
  62.800	 9.258E+00	-8.212E-01	-2.466E-01	 9.039E+01	 6.205E+01	 5.553E+02	-1.088E+03	 2.261E+03	 4.586E+01	 2.033E+03	-1.471E+03	 1.921E+02	 2.044E+01	 2.081E+02	 9.582E+00	-2.026E+03	 6.650E+01	 1.754E+04	 2.752E+02	 1.495E+03	 8.357E+00	 1.021E+01
  62.850	 9.362E+00	-1.115E+00	-2.827E-01	 9.788E+01	 5.572E+01	 5.510E+02	-1.036E+03	 2.317E+03	 4.724E+01	 2.095E+03	-1.432E+03	 1.983E+02	 2.046E+01	 2.178E+02	 8.342E+00	-2.024E+03	 1.452E+02	 1.785E+04	 2.893E+02	 1.500E+03	 8.377E+00	 1.027E+01
  62.900	 9.343E+00	-1.085E+00	-3.521E-01	 1.033E+02	 5.204E+01	 5.469E+02	-9.641E+02	 2.425E+03	 4.801E+01	 2.213E+03	-1.384E+03	 2.032E+02	 2.049E+01	 2.268E+02	 6.257E+00	-2.027E+03	 2.497E+02	 1.817E+04	 2.523E+02	 1.502E+03	 8.377E+00	 1.034E+01
  62.950	 9.534E+00	-8.336E-01	-5.053E-01	 1.021E+02	 4.739E+01	 5.419E+02	-9.225E+02	 2.411E+03	 4.632E+01	 2.205E+03	-1.343E+03	 2.135E+02	 2.052E+01	 2.284E+02	 5.646E+00	-2.028E+03	 3.355E+02	 1.832E+04	 3.441E+02	 1.504E+03	 8.377E+00	 1.042E+01
  63.000	 9.981E+00	-1.030E+00	-3.925E-01	 1.052E+02	 4.393E+01	 5.369E+02	-8.405E+02	 2.486E+03	 4.955E+01	 2.292E+03	-1.278E+03	 2.147E+02	 2.053E+01	 2.256E+02	 4.845E+00	-2.030E+03	 4.312E+02	 1.834E+04	 3.632E+02	 1.505E+03	 8.377E+00	 1.045E+01
  63.050	 1.018E+01	-7.205E-01	-8.437E-02	 9.714E+01	 4.005E+01	 5.338E+02	-7.475E+02	 2.428E+03	 4.479E+01	 2.252E+03	-1.176E+03	 2.033E+02	 2.053E+01	 2.153E+02	 2.946E+00	-2.025E+03	 5.575E+02	 1.824E+04	 3.552E+02	 1.505E+03	 8.377E+00	 1.047E+01
  63.100	 1.032E+01	-1.582E-01	-8.395E-01	 9.980E+01	 3.211E+01	 5.302E+02	-6.488E+02	 2.429E+03	 4.405E+01	 2.272E+03	-1.078E+03	 2.060E+02	 2.051E+01	 2.166E+02	 5.239E-01	-2.028E+03	 7.010E+02	 1.841E+04	 4.881E+02	 1.504E+03	 8.377E+00	 1.043E+01
  63.150	 1.059E+01	-1.869E-01	-7.362E-01	 1.015E+02	 2.588E+01	 5.270E+02	-5.257E+02	 2.450E+03	 4.332E+01	 2.316E+03	-9.577E+02	 2.060E+02	 2.048E+01	 2.251E+02	-2.989E+00	-2.033E+03	 8.633E+02	 1.878E+04	 6.241E+02	 1.502E+03	 8.377E+00	 1.036E+01
  63.200	 1.077E+01	-3.477E-01	-7.440E-01	 9.704E+01	 2.002E+01	 5.240E+02	-3.901E+02	 2.416E+03	 3.862E+01	 2.307E+03	-8.156E+02	 1.949E+02	 2.046E+01	 2.325E+02	-5.292E+00	-2.028E+03	 9.902E+02	 1.915E+04	 6.066E+02	 1.500E+03	 8.377E+00	 1.030E+01
  63.250	 1.108E+01	-9.518E-01	-7.955E-01	 1.101E+02	 9.193E+00	 5.213E+02	-2.230E+02	 2.526E+03	 4.054E+01	 2.446E+03	-6.696E+02	 2.094E+02	 2.045E+01	 2.417E+02	-5.867E+00	-2.026E+03	 1.065E+03	 1.953E+04	 6.648E+02	 1.498E+03	 8.367E+00	 1.026E+01
  63.300	 1.110E+01	-6.463E-01	-4.968E-01	 1.111E+02	-1.634E-01	 5.199E+02	-6.038E+01	 2.531E+03	 3.663E+01	 2.479E+03	-5.114E+02	 2.014E+02	 2.047E+01	 2.431E+02	-4.832E+00	-2.037E+03	 1.093E+03	 1.972E+04	 8.772E+02	 1.500E+03	 8.377E+00	 1.029E+01
  63.350	 1.069E+01	-6.259E-01	-2.586E-01	 1.105E+02	-5.080E+00	 5.191E+02	 8.291E+01	 2.546E+03	 3.453E+01	 2.519E+03	-3.756E+02	 2.111E+02	 2.049E+01	 2.398E+02	-3.568E+00	-2.032E+03	 1.116E+03	 1.980E+04	 8.195E+02	 1.502E+03	 8.377E+00	 1.035E+01
  63.400	 1.126E+01	 5.177E-02	-5.419E-01	 1.187E+02	-1.988E+01	 5.189E+02	 2.581E+02	 2.578E+03	 3.392E+01	 2.582E+03	-2.125E+02	 2.085E+02	 2.052E+01	 2.433E+02	-4.761E+00	-2.029E+03	 1.194E+03	 2.002E+04	 7.875E+02	 1.504E+03	 8.377E+00	 1.042E+01
  63.450	 1.119E+01	 1.381E-01	-2.692E-01	 1.023E+02	-1.996E+01	 5.203E+02	 3.620E+02	 2.475E+03	 2.256E+01	 2.499E+03	-9.452E+01	 2.170E+02	 2.053E+01	 2.441E+02	-7.107E+00	-2.025E+03	 1.307E+03	 2.023E+04	 5.810E+02	 1.506E+03	 8.377E+00	 1.049E+01
  63.500	 1.097E+01	 2.808E-01	 1.540E-01	 1.039E+02	-2.793E+01	 5.212E+02	 5.303E+02	 2.530E+03	 2.085E+01	 2.584E+03	 6.000E+01	 2.102E+02	 2.056E+01	 2.562E+02	-1.047E+01	-2.029E+03	 1.430E+03	 2.065E+04	 4.473E+02	 1.507E+03	 8.377E+00	 1.051E+01
  63.550	 1.067E+01	 6.581E-02	 8.883E-02	 1.128E+02	-3.877E+01	 5.215E+02	 6.902E+02	 2.616E+03	 2.386E+01	 2.698E+03	 1.991E+02	 2.185E+02	 2.057E+01	 2.651E+02	-1.146E+01	-2.027E+03	 1.485E+03	 2.094E+04	 2.885E+02	 1.508E+03	 8.377E+00	 1.056E+01
  63.600	 1.107E+01	 1.659E-02	-3.838E-02	 1.100E+02	-4.756E+01	 5.240E+02	 8.255E+02	 2.582E+03	 1.726E+01	 2.690E+03	 3.383E+02	 2.101E+02	 2.055E+01	 2.601E+02	-9.674E+00	-2.023E+03	 1.460E+03	 2.086E+04	 2.141E+02	 1.507E+03	 8.377E+00	 1.056E+01
  63.650	 1.109E+01	-5.301E-01	-1.152E-01	 1.152E+02	-5.663E+01	 5.263E+02	 9.721E+02	 2.631E+03	 1.463E+01	 2.765E+03	 4.744E+02	 2.122E+02	 2.054E+01	 2.519E+02	-7.734E+00	-2.018E+03	 1.412E+03	 2.064E+04	 1.310E+02	 1.506E+03	 8.377E+00	 1.054E+01
  63.700	 1.122E+01	-5.203E-01	 2.679E-01	 1.193E+02	-6.707E+01	 5.288E+02	 1.124E+03	 2.660E+03	 1.066E+01	 2.820E+03	 6.209E+02	 2.114E+02	 2.052E+01	 2.407E+02	-6.652E+00	-2.022E+03	 1.378E+03	 2.037E+04	 2.490E+02	 1.504E+03	 8.377E+00	 1.048E+01
  63.750	 1.116E+01	-6.979E-01	 2.297E-01	 1.322E+02	-7.721E+01	 5.309E+02	 1.283E+03	 2.780E+03	 1.268E+01	 2.967E+03	 7.575E+02	 2.284E+02	 2.051E+01	 2.396E+02	-7.427E+00	-2.027E+03	 1.386E+03	 2.034E+04	 3.680E+02	 1.503E+03	 8.377E+00	 1.044E+01
  63.800	 1.086E+01	-7.778E-01	 7.801E-01	 1.269E+02	-7.923E+01	 5.339E+02	 1.390E+03	 2.764E+03	 6.345E+00	 2.970E+03	 8.664E+02	 2.233E+02	 2.051E+01	 2.430E+02	-8.163E+00	-2.027E+03	 1.398E+03	 2.048E+04	 3.922E+02	 1.503E+03	 8.377E+00	 1.044E+01
  63.850	 1.095E+01	-1.118E+00	 1.669E-01	 1.145E+02	-7.849E+01	 5.382E+02	 1.466E+03	 2.676E+03	-2.640E+00	 2.898E+03	 9.549E+02	 2.169E+02	 2.053E+01	 2.513E+02	-8.992E+00	-2.024E+03	 1.405E+03	 2.075E+04	 2.865E+02	 1.505E+03	 8.377E+00	 1.048E+01
  63.900	 1.111E+01	-1.513E+00	 6.196E-01	 1.262E+02	-8.915E+01	 5.410E+02	 1.570E+03	 2.745E+03	 2.594E-01	 2.986E+03	 1.040E+03	 2.360E+02	 2.056E+01	 2.631E+02	-8.830E+00	-2.027E+03	 1.376E+03	 2.106E+04	 3.065E+02	 1.507E+03	 8.377E+00	 1.055E+01
  63.950	 1.080E+01	-1.448E+00	 4.803E-01	 1.271E+02	-9.454E+01	 5.463E+02	 1.645E+03	 2.745E+03	-1.013E+00	 3.002E+03	 1.108E+03	 2.365E+02	 2.059E+01	 2.613E+02	-6.755E+00	-2.031E+03	 1.297E+03	 2.105E+04	 3.645E+02	 1.509E+03	 8.377E+00	 1.066E+01
  64.000	 1.090E+01	-7.311E-01	 2.171E-01	 1.284E+02	-9.806E+01	 5.507E+02	 1.702E+03	 2.760E+03	 1.510E-01	 3.028E+03	 1.159E+03	 2.325E+02	 2.063E+01	 2.610E+02	-5.410E+00	-2.029E+03	 1.225E+03	 2.101E+04	 4.073E+02	 1.512E+03	 8.377E+00	 1.072E+01
  64.050	 1.094E+01	-7.444E-01	 3.542E-01	 1.231E+02	-9.831E+01	 5.569E+02	 1.701E+03	 2.702E+03	-3.338E+00	 2.973E+03	 1.165E+03	 2.389E+02	 2.065E+01	 2.492E+02	-4.994E+00	-2.024E+03	 1.178E+03	 2.073E+04	 3.293E+02	 1.514E+03	 8.377E+00	 1.079E+01
  64.100	 1.114E+01	-8.423E-01	-7.485E-02	 1.167E+02	-9.456E+01	 5.623E+02	 1.709E+03	 2.683E+03	-4.320E+00	 2.956E+03	 1.174E+03	 2.194E+02	 2.065E+01	 2.448E+02	-4.454E+00	-2.024E+03	 1.138E+03	 2.064E+04	 3.978E+02	 1.514E+03	 8.377E+00	 1.083E+01
  64.150	 1.130E+01	-5.084E-01	 3.663E-01	 1.269E+02	-9.772E+01	 5.655E+02	 1.730E+03	 2.778E+03	 1.808E+00	 3.052E+03	 1.180E+03	 2.308E+02	 2.062E+01	 2.551E+02	-7.408E+00	-2.025E+03	 1.167E+03	 2.086E+04	 5.888E+02	 1.512E+03	 8.377E+00	 1.078E+01
  64.200	 1.131E+01	-3.780E-01	 3.767E-01	 1.294E+02	-1.036E+02	 5.710E+02	 1.737E+03	 2.748E+03	 2.627E-01	 3.023E+03	 1.195E+03	 2.188E+02	 2.060E+01	 2.589E+02	-9.448E+00	-2.034E+03	 1.165E+03	 2.099E+04	 7.102E+02	 1.510E+03	 8.377E+00	 1.073E+01
  64.250	 1.140E+01	-6.513E-01	 8.205E-02	 1.281E+02	-9.836E+01	 5.759E+02	 1.696E+03	 2.759E+03	-5.152E-02	 3.027E+03	 1.154E+03	 2.166E+02	 2.059E+01	 2.628E+02	-7.126E+00	-2.034E+03	 1.050E+03	 2.108E+04	 7.699E+02	 1.510E+03	 8.377E+00	 1.071E+01
  64.300	 1.173E+01	-5.004E-01	 2.024E-01	 1.328E+02	-9.839E+01	 5.812E+02	 1.653E+03	 2.761E+03	 2.983E+00	 3.020E+03	 1.110E+03	 2.219E+02	 2.060E+01	 2.598E+02	-2.339E+00	-2.039E+03	 8.603E+02	 2.097E+04	 8.160E+02	 1.510E+03	 8.377E+00	 1.072E+01
  64.350	 1.142E+01	-6.924E-01	 8.965E-02	 1.205E+02	-8.576E+01	 5.870E+02	 1.550E+03	 2.672E+03	-6.363E-01	 2.914E+03	 1.022E+03	 2.226E+02	 2.063E+01	 2.537E+02	 2.498E+00	-2.025E+03	 6.620E+02	 2.076E+04	 7.100E+02	 1.512E+03	 8.377E+00	 1.079E+01
  64.400	 1.152E+01	-8.828E-01	 5.571E-01	 1.250E+02	-8.879E+01	 5.921E+02	 1.475E+03	 2.613E+03	 3.657E+00	 2.844E+03	 9.548E+02	 2.239E+02	 2.066E+01	 2.479E+02	 6.068E+00	-2.031E+03	 5.090E+02	 2.057E+04	 6.711E+02	 1.514E+03	 8.377E+00	 1.089E+01
  64.450	 1.135E+01	-3.665E-01	 4.479E-01	 1.051E+02	-7.351E+01	 5.965E+02	 1.333E+03	 2.442E+03	 1.386E+00	 2.651E+03	 8.427E+02	 2.103E+02	 2.069E+01	 2.508E+02	 5.481E+00	-2.024E+03	 4.643E+02	 2.060E+04	 4.343E+02	 1.517E+03	 8.377E+00	 1.100E+01
  64.500	 1.134E+01	-6.556E-02	 2.052E-01	 1.029E+02	-6.962E+01	 6.010E+02	 1.223E+03	 2.370E+03	 7.103E+00	 2.560E+03	 7.473E+02	 2.052E+02	 2.071E+01	 2.568E+02	 2.896E+00	-2.019E+03	 4.786E+02	 2.069E+04	 3.215E+02	 1.519E+03	 8.377E+00	 1.102E+01
  64.550	 1.140E+01	-7.101E-02	 4.781E-01	 1.016E+02	-6.406E+01	 6.058E+02	 1.073E+03	 2.290E+03	 1.070E+01	 2.453E+03	 6.129E+02	 2.133E+02	 2.071E+01	 2.630E+02	 1.320E+00	-2.023E+03	 4.672E+02	 2.074E+04	 2.074E+02	 1.519E+03	 8.377E+00	 1.107E+01
  64.600	 1.183E+01	-2.560E-01	 9.424E-01	 1.005E+02	-5.809E+01	 6.097E+02	 9.258E+02	 2.238E+03	 1.443E+01	 2.374E+03	 4.793E+02	 2.216E+02	 2.070E+01	 2.597E+02	 1.043E+00	-2.022E+03	 4.074E+02	 2.052E+04	 1.550E+02	 1.518E+03	 8.377E+00	 1.106E+01
  64.650	 1.174E+01	-5.844E-01	 3.481E-01	 9.799E+01	-5.016E+01	 6.129E+02	 7.903E+02	 2.205E+03	 1.800E+01	 2.315E+03	 3.526E+02	 2.101E+02	 2.070E+01	 2.421E+02	 5.808E+00	-2.022E+03	 2.265E+02	 1.995E+04	 1.052E+02	 1.517E+03	 8.377E+00	 1.106E+01
  64.700	 1.232E+01	-9.239E-01	 7.538E-01	 9.393E+01	-3.957E+01	 6.159E+02	 6.293E+02	 2.167E+03	 1.988E+01	 2.248E+03	 2.022E+02	 2.154E+02	 2.069E+01	 2.312E+02	 1.088E+01	-2.020E+03	 3.748E+01	 1.951E+04	 2.201E+02	 1.517E+03	 8.377E+00	 1.105E+01
  64.750	 1.207E+01	-1.038E+00	 6.560E-01	 1.062E+02	-3.807E+01	 6.184E+02	 5.004E+02	 2.231E+03	 2.778E+01	 2.286E+03	 6.360E+01	 2.294E+02	 2.069E+01	 2.246E+02	 1.365E+01	-2.024E+03	-8.025E+01	 1.924E+04	 2.070E+02	 1.517E+03	 8.377E+00	 1.105E+01
  64.800	 1.247E+01	-1.179E+00	 2.505E-01	 9.448E+01	-2.157E+01	 6.214E+02	 3.283E+02	 2.157E+03	 2.638E+01	 2.180E+03	-9.185E+01	 2.191E+02	 2.069E+01	 2.342E+02	 1.238E+01	-2.020E+03	-8.185E+01	 1.940E+04	 2.229E+02	 1.516E+03	 8.377E+00	 1.107E+01
  64.850	 1.202E+01	-8.965E-01	 7.846E-01	 9.238E+01	-1.604E+01	 6.244E+02	 1.809E+02	 2.106E+03	 2.571E+01	 2.102E+03	-2.269E+02	 2.104E+02	 2.069E+01	 2.473E+02	 8.363E+00	-2.024E+03	-3.132E+00	 1.965E+04	 6.301E+01	 1.517E+03	 8.377E+00	 1.107E+01
  64.900	 1.224E+01	-6.926E-01	 9.939E-01	 9.536E+01	-9.369E+00	 6.263E+02	 5.016E+01	 2.137E+03	 2.657E+01	 2.106E+03	-3.632E+02	 2.045E+02	 2.071E+01	 2.504E+02	 7.196E+00	-2.023E+03	 1.872E+01	 1.966E+04	 9.948E+00	 1.518E+03	 8.377E+00	 1.113E+01
  64.950	 1.203E+01	-6.529E-01	 8.078E-01	 1.054E+02	 1.431E+00	 6.266E+02	-8.582E+01	 2.269E+03	 3.427E+01	 2.209E+03	-5.264E+02	 2.296E+02	 2.074E+01	 2.441E+02	 7.874E+00	-2.019E+03	-1.724E+01	 1.940E+04	 3.826E+01	 1.521E+03	 8.377E+00	 1.124E+01
  65.000	 1.268E+01	-3.982E-01	 8.212E-01	 9.943E+01	 1.089E+01	 6.263E+02	-2.524E+02	 2.190E+03	 3.392E+01	 2.098E+03	-6.760E+02	 2.255E+02	 2.078E+01	 2.315E+02	 1.233E+01	-2.023E+03	-1.375E+02	 1.897E+04	 2.739E+01	 1.523E+03	 8.377E+00	 1.128E+01
  65.050	 1.234E+01	-3.981E-01	 6.773E-01	 9.338E+01	 1.599E+01	 6.249E+02	-4.058E+02	 2.049E+03	 3.494E+01	 1.929E+03	-8.020E+02	 2.160E+02	 2.080E+01	 2.191E+02	 1.596E+01	-2.023E+03	-2.233E+02	 1.857E+04	 1.611E+02	 1.525E+03	 8.377E+00	 1.137E+01
  65.100	 1.248E+01	-4.764E-01	-1.154E-01	 8.713E+01	 2.222E+01	 6.229E+02	-5.324E+02	 1.927E+03	 3.767E+01	 1.784E+03	-9.030E+02	 1.979E+02	 2.080E+01	 2.136E+02	 1.498E+01	-2.019E+03	-1.767E+02	 1.837E+04	 1.855E+02	 1.525E+03	 8.377E+00	 1.140E+01
  65.150	 1.279E+01	-8.570E-01	-1.485E-01	 8.995E+01	 2.552E+01	 6.216E+02	-6.771E+02	 1.858E+03	 3.886E+01	 1.687E+03	-1.031E+03	 2.146E+02	 2.079E+01	 2.194E+02	 1.015E+01	-2.021E+03	-1.119E+01	 1.849E+04	 4.076E+02	 1.524E+03	 8.377E+00	 1.140E+01
  65.200	 1.289E+01	-6.402E-01	-1.265E-01	 8.432E+01	 3.288E+01	 6.195E+02	-7.980E+02	 1.765E+03	 3.728E+01	 1.573E+03	-1.130E+03	 2.026E+02	 2.077E+01	 2.274E+02	 4.731E+00	-2.026E+03	 1.842E+02	 1.871E+04	 5.282E+02	 1.523E+03	 8.377E+00	 1.137E+01
  65.250	 1.264E+01	-9.641E-01	-2.624E-01	 7.034E+01	 4.383E+01	 6.176E+02	-9.210E+02	 1.619E+03	 3.420E+01	 1.405E+03	-1.222E+03	 1.846E+02	 2.076E+01	 2.367E+02	 1.319E+00	-2.032E+03	 3.243E+02	 1.896E+04	 7.138E+02	 1.522E+03	 8.377E+00	 1.137E+01
  65.300	 1.269E+01	-8.316E-01	-8.607E-01	 6.862E+01	 5.136E+01	 6.147E+02	-1.024E+03	 1.608E+03	 3.368E+01	 1.376E+03	-1.320E+03	 1.892E+02	 2.075E+01	 2.395E+02	 2.664E+00	-2.036E+03	 3.472E+02	 1.902E+04	 8.019E+02	 1.522E+03	 8.377E+00	 1.135E+01
  65.350	 1.267E+01	-2.153E-01	-6.125E-01	 9.003E+01	 4.866E+01	 6.120E+02	-1.077E+03	 1.765E+03	 4.169E+01	 1.519E+03	-1.404E+03	 2.200E+02	 2.076E+01	 2.386E+02	 5.067E+00	-2.026E+03	 3.368E+02	 1.892E+04	 6.781E+02	 1.522E+03	 8.377E+00	 1.136E+01
  65.400	 1.290E+01	-3.800E-01	-2.802E-01	 7.967E+01	 5.604E+01	 6.082E+02	-1.132E+03	 1.739E+03	 3.648E+01	 1.480E+03	-1.455E+03	 1.991E+02	 2.079E+01	 2.235E+02	 7.446E+00	-2.028E+03	 3.378E+02	 1.853E+04	 6.910E+02	 1.523E+03	 8.377E+00	 1.144E+01
  65.450	 1.315E+01	-2.058E-01	-1.008E+00	 7.964E+01	 5.641E+01	 6.042E+02	-1.182E+03	 1.757E+03	 3.435E+01	 1.485E+03	-1.510E+03	 1.956E+02	 2.082E+01	 2.193E+02	 5.965E+00	-2.028E+03	 4.467E+02	 1.838E+04	 6.499E+02	 1.526E+03	 8.377E+00	 1.155E+01
  65.500	 1.345E+01	-7.029E-01	-1.072E+00	 9.742E+01	 5.706E+01	 6.002E+02	-1.177E+03	 1.983E+03	 4.401E+01	 1.706E+03	-1.551E+03	 2.075E+02	 2.084E+01	 2.286E+02	 3.290E-01	-2.025E+03	 6.672E+02	 1.855E+04	 3.821E+02	 1.527E+03	 8.377E+00	 1.158E+01
  65.550	 1.346E+01	-7.787E-01	-8.650E-01	 9.197E+01	 5.994E+01	 5.959E+02	-1.227E+03	 1.949E+03	 3.993E+01	 1.662E+03	-1.595E+03	 2.043E+02	 2.084E+01	 2.352E+02	-3.915E+00	-2.028E+03	 8.668E+02	 1.868E+04	 4.334E+02	 1.527E+03	 8.377E+00	 1.164E+01
  65.600	 1.331E+01	-7.825E-01	-1.124E+00	 9.735E+01	 6.182E+01	 5.908E+02	-1.203E+03	 2.084E+03	 4.346E+01	 1.798E+03	-1.600E+03	 2.033E+02	 2.085E+01	 2.376E+02	-8.008E+00	-2.030E+03	 1.036E+03	 1.867E+04	 2.637E+02	 1.528E+03	 8.377E+00	 1.166E+01
  65.650	 1.305E+01	-4.254E-01	-1.143E+00	 9.064E+01	 6.044E+01	 5.861E+02	-1.204E+03	 2.014E+03	 3.939E+01	 1.729E+03	-1.586E+03	 1.916E+02	 2.084E+01	 2.294E+02	-6.744E+00	-2.027E+03	 1.062E+03	 1.837E+04	 3.319E+02	 1.528E+03	 8.377E+00	 1.167E+01
  65.700	 1.277E+01	-7.035E-01	-1.197E+00	 8.680E+01	 6.338E+01	 5.809E+02	-1.188E+03	 2.038E+03	 3.849E+01	 1.756E+03	-1.576E+03	 1.904E+02	 2.083E+01	 2.175E+02	-3.478E+00	-2.033E+03	 1.023E+03	 1.797E+04	 3.224E+02	 1.527E+03	 8.377E+00	 1.168E+01
  65.750	 1.268E+01	-9.878E-01	-1.199E+00	 9.591E+01	 5.494E+01	 5.755E+02	-1.122E+03	 2.080E+03	 4.240E+01	 1.811E+03	-1.519E+03	 1.885E+02	 2.081E+01	 2.116E+02	-8.704E-01	-2.024E+03	 1.001E+03	 1.771E+04	 1.621E+02	 1.526E+03	 8.377E+00	 1.165E+01
  65.800	 1.249E+01	-1.044E+00	-8.169E-01	 1.046E+02	 4.586E+01	 5.714E+02	-1.025E+03	 2.148E+03	 4.424E+01	 1.897E+03	-1.438E+03	 1.769E+02	 2.081E+01	 2.177E+02	-2.016E+00	-2.014E+03	 1.066E+03	 1.774E+04	 6.191E+01	 1.526E+03	 8.377E+00	 1.166E+01
  65.850	 1.244E+01	-6.590E-01	-5.513E-01	 1.017E+02	 4.763E+01	 5.675E+02	-9.676E+02	 2.168E+03	 4.267E+01	 1.928E+03	-1.386E+03	 1.864E+02	 2.081E+01	 2.214E+02	-5.595E+00	-2.025E+03	 1.188E+03	 1.775E+04	 5.504E+01	 1.525E+03	 8.377E+00	 1.167E+01
  65.900	 1.239E+01	-1.276E+00	-7.348E-01	 1.021E+02	 4.115E+01	 5.637E+02	-8.591E+02	 2.195E+03	 3.981E+01	 1.975E+03	-1.287E+03	 1.789E+02	 2.082E+01	 2.268E+02	-8.569E+00	-2.021E+03	 1.281E+03	 1.775E+04	 7.977E+01	 1.526E+03	 8.377E+00	 1.171E+01
  65.950	 1.225E+01	-1.235E+00	-7.474E-01	 9.318E+01	 4.177E+01	 5.601E+02	-7.577E+02	 2.177E+03	 3.622E+01	 1.976E+03	-1.186E+03	 1.675E+02	 2.084E+01	 2.202E+02	-7.719E+00	-2.028E+03	 1.271E+03	 1.746E+04	 9.160E+01	 1.528E+03	 8.377E+00	 1.178E+01
  66.000	 1.258E+01	-1.407E+00	-8.770E-01	 1.019E+02	 2.730E+01	 5.573E+02	-6.126E+02	 2.206E+03	 3.707E+01	 2.034E+03	-1.051E+03	 1.704E+02	 2.086E+01	 2.140E+02	-5.679E+00	-2.030E+03	 1.211E+03	 1.709E+04	 2.348E+02	 1.529E+03	 8.377E+00	 1.180E+01
  66.050	 1.250E+01	-1.227E+00	-7.395E-01	 1.049E+02	 1.947E+01	 5.541E+02	-4.890E+02	 2.231E+03	 3.699E+01	 2.083E+03	-9.366E+02	 1.874E+02	 2.086E+01	 1.980E+02	-2.978E+00	-2.024E+03	 1.136E+03	 1.651E+04	 2.573E+02	 1.529E+03	 8.377E+00	 1.185E+01
  66.100	 1.241E+01	-1.361E+00	-8.398E-01	 9.943E+01	 1.628E+01	 5.516E+02	-3.353E+02	 2.235E+03	 3.466E+01	 2.118E+03	-7.886E+02	 1.694E+02	 2.087E+01	 1.888E+02	-2.338E+00	-2.019E+03	 1.116E+03	 1.610E+04	 2.413E+02	 1.530E+03	 8.377E+00	 1.189E+01
  66.150	 1.245E+01	-1.247E+00	-1.084E+00	 1.016E+02	 5.668E+00	 5.500E+02	-1.943E+02	 2.230E+03	 3.219E+01	 2.142E+03	-6.506E+02	 1.736E+02	 2.087E+01	 1.870E+02	-4.718E+00	-2.028E+03	 1.170E+03	 1.591E+04	 4.024E+02	 1.530E+03	 8.377E+00	 1.192E+01
  66.200	 1.291E+01	-9.818E-01	-4.697E-01	 9.594E+01	 3.216E+00	 5.477E+02	-6.651E+01	 2.232E+03	 2.699E+01	 2.170E+03	-5.262E+02	 1.822E+02	 2.087E+01	 1.932E+02	-6.417E+00	-2.028E+03	 1.219E+03	 1.596E+04	 4.951E+02	 1.530E+03	 8.377E+00	 1.192E+01
  66.250	 1.300E+01	-1.021E+00	-3.924E-01	 1.106E+02	-1.582E+01	 5.462E+02	 1.452E+02	 2.311E+03	 2.921E+01	 2.291E+03	-3.364E+02	 1.831E+02	 2.087E+01	 2.038E+02	-9.501E+00	-2.031E+03	 1.271E+03	 1.609E+04	 5.046E+02	 1.529E+03	 8.377E+00	 1.195E+01
  66.300	 1.304E+01	-7.458E-01	-5.805E-01	 1.059E+02	-2.199E+01	 5.451E+02	 3.053E+02	 2.270E+03	 2.516E+01	 2.284E+03	-1.711E+02	 1.860E+02	 2.086E+01	 2.012E+02	-8.903E+00	-2.026E+03	 1.228E+03	 1.592E+04	 4.889E+02	 1.529E+03	 8.377E+00	 1.195E+01
  66.350	 1.306E+01	-9.511E-01	-3.037E-01	 9.196E+01	-2.273E+01	 5.452E+02	 4.358E+02	 2.168E+03	 1.634E+01	 2.211E+03	-2.279E+01	 1.780E+02	 2.086E+01	 1.882E+02	-4.734E+00	-2.036E+03	 1.096E+03	 1.553E+04	 4.912E+02	 1.529E+03	 8.377E+00	 1.195E+01
  66.400	 1.321E+01	-1.098E+00	-5.783E-02	 1.025E+02	-3.972E+01	 5.455E+02	 6.025E+02	 2.170E+03	 1.800E+01	 2.248E+03	 1.378E+02	 1.904E+02	 2.088E+01	 1.867E+02	-1.861E+00	-2.030E+03	 9.858E+02	 1.539E+04	 4.698E+02	 1.531E+03	 8.377E+00	 1.201E+01
  66.450	 1.301E+01	-1.253E+00	 1.339E-01	 9.554E+01	-4.467E+01	 5.466E+02	 7.397E+02	 2.097E+03	 1.385E+01	 2.205E+03	 2.855E+02	 1.771E+02	 2.089E+01	 1.877E+02	 2.056E-01	-2.034E+03	 9.078E+02	 1.538E+04	 4.260E+02	 1.531E+03	 8.377E+00	 1.205E+01
  66.500	 1.265E+01	-1.690E+00	-4.383E-02	 9.527E+01	-4.962E+01	 5.477E+02	 8.915E+02	 2.121E+03	 1.377E+01	 2.261E+03	 4.284E+02	 1.711E+02	 2.089E+01	 2.003E+02	-1.995E+00	-2.033E+03	 9.286E+02	 1.563E+04	 2.972E+02	 1.531E+03	 8.377E+00	 1.207E+01
  66.550	 1.265E+01	-1.390E+00	-4.033E-01	 9.522E+01	-5.941E+01	 5.498E+02	 1.026E+03	 2.091E+03	 9.644E+00	 2.259E+03	 5.654E+02	 1.634E+02	 2.088E+01	 2.054E+02	-4.431E+00	-2.031E+03	 9.506E+02	 1.571E+04	 2.892E+02	 1.531E+03	 8.377E+00	 1.209E+01
  66.600	 1.269E+01	-1.410E+00	-4.287E-01	 9.647E+01	-6.511E+01	 5.531E+02	 1.118E+03	 2.091E+03	 6.493E+00	 2.279E+03	 6.551E+02	 1.788E+02	 2.088E+01	 2.004E+02	-3.893E+00	-2.026E+03	 8.932E+02	 1.551E+04	 2.649E+02	 1.531E+03	 8.377E+00	 1.210E+01
  66.650	 1.267E+01	-9.642E-01	-2.897E-01	 1.024E+02	-7.466E+01	 5.564E+02	 1.262E+03	 2.155E+03	 5.083E+00	 2.372E+03	 7.815E+02	 1.676E+02	 2.088E+01	 1.904E+02	-1.899E+00	-2.033E+03	 7.762E+02	 1.516E+04	 3.577E+02	 1.531E+03	 8.377E+00	 1.212E+01
  66.700	 1.242E+01	-8.612E-01	-3.791E-01	 1.040E+02	-7.980E+01	 5.601E+02	 1.377E+03	 2.193E+03	 2.710E+00	 2.434E+03	 8.851E+02	 1.641E+02	 2.089E+01	 1.807E+02	 1.343E+00	-2.028E+03	 6.207E+02	 1.482E+04	 3.709E+02	 1.531E+03	 8.377E+00	 1.215E+01
  66.750	 1.266E+01	-8.035E-01	-3.540E-01	 1.082E+02	-8.492E+01	 5.638E+02	 1.474E+03	 2.236E+03	 2.879E+00	 2.497E+03	 9.686E+02	 1.660E+02	 2.090E+01	 1.754E+02	 5.363E+00	-2.027E+03	 4.586E+02	 1.460E+04	 4.148E+02	 1.532E+03	 8.377E+00	 1.218E+01
  66.800	 1.232E+01	-7.212E-01	-1.838E-01	 1.116E+02	-8.919E+01	 5.677E+02	 1.535E+03	 2.261E+03	 3.619E+00	 2.534E+03	 1.021E+03	 1.853E+02	 2.092E+01	 1.772E+02	 5.425E+00	-2.021E+03	 3.930E+02	 1.459E+04	 3.517E+02	 1.533E+03	 8.377E+00	 1.223E+01
  66.850	 1.244E+01	-5.405E-01	-1.807E-01	 1.019E+02	-9.114E+01	 5.719E+02	 1.574E+03	 2.147E+03	-1.710E+00	 2.433E+03	 1.082E+03	 1.636E+02	 2.092E+01	 1.820E+02	 3.642E+00	-2.021E+03	 3.814E+02	 1.470E+04	 3.197E+02	 1.533E+03	 8.377E+00	 1.228E+01
  66.900	 1.305E+01	-6.901E-01	-1.201E-01	 1.000E+02	-9.305E+01	 5.761E+02	 1.615E+03	 2.112E+03	-2.448E-01	 2.407E+03	 1.128E+03	 1.533E+02	 2.091E+01	 1.863E+02	 3.079E+00	-2.026E+03	 3.539E+02	 1.481E+04	 3.486E+02	 1.533E+03	 8.377E+00	 1.229E+01
  66.950	 1.272E+01	-1.182E+00	 5.219E-02	 9.903E+01	-9.633E+01	 5.802E+02	 1.627E+03	 2.057E+03	-1.114E+00	 2.357E+03	 1.152E+03	 1.488E+02	 2.090E+01	 1.913E+02	 3.443E+00	-2.028E+03	 2.969E+02	 1.488E+04	 3.652E+02	 1.532E+03	 8.377E+00	 1.229E+01
  67.000	 1.242E+01	-9.878E-01	 2.886E-01	 8.999E+01	-9.141E+01	 5.863E+02	 1.621E+03	 1.982E+03	-4.022E+00	 2.282E+03	 1.163E+03	 1.438E+02	 2.088E+01	 1.811E+02	 5.921E+00	-2.019E+03	 1.905E+02	 1.461E+04	 3.672E+02	 1.531E+03	 8.377E+00	 1.228E+01
  67.050	 1.268E+01	-4.750E-01	-2.553E-02	 9.432E+01	-9.413E+01	 5.914E+02	 1.634E+03	 2.010E+03	-2.798E+00	 2.311E+03	 1.171E+03	 1.399E+02	 2.085E+01	 1.717E+02	 9.829E+00	-2.026E+03	 5.980E+01	 1.433E+04	 4.859E+02	 1.529E+03	 8.377E+00	 1.224E+01
  67.100	 1.276E+01	-6.107E-01	-1.360E-01	 9.871E+01	-9.523E+01	 5.966E+02	 1.627E+03	 2.042E+03	-1.791E+00	 2.341E+03	 1.157E+03	 1.438E+02	 2.085E+01	 1.692E+02	 1.195E+01	-2.031E+03	-2.057E+01	 1.422E+04	 5.898E+02	 1.528E+03	 8.377E+00	 1.224E+01
  67.150	 1.242E+01	-7.968E-01	 1.807E-01	 9.876E+01	-9.136E+01	 6.012E+02	 1.604E+03	 2.084E+03	-1.415E+00	 2.376E+03	 1.126E+03	 1.440E+02	 2.085E+01	 1.736E+02	 1.165E+01	-2.030E+03	-2.753E+01	 1.431E+04	 7.283E+02	 1.528E+03	 8.377E+00	 1.224E+01
  67.200	 1.273E+01	-6.257E-01	 2.237E-02	 1.083E+02	-9.535E+01	 6.067E+02	 1.574E+03	 2.142E+03	 1.931E+00	 2.427E+03	 1.083E+03	 1.616E+02	 2.086E+01	 1.791E+02	 9.319E+00	-2.035E+03	 3.070E+01	 1.446E+04	 7.015E+02	 1.529E+03	 8.377E+00	 1.228E+01
  67.250	 1.288E+01	-5.041E-01	 1.727E-01	 9.884E+01	-8.581E+01	 6.119E+02	 1.487E+03	 2.093E+03	-1.738E+00	 2.362E+03	 1.005E+03	 1.595E+02	 2.088E+01	 1.898E+02	 7.245E+00	-2.033E+03	 9.536E+01	 1.472E+04	 5.620E+02	 1.530E+03	 8.377E+00	 1.233E+01
  67.300	 1.236E+01	-6.715E-01	 3.147E-01	 1.019E+02	-8.029E+01	 6.164E+02	 1.427E+03	 2.161E+03	 2.196E+00	 2.417E+03	 9.307E+02	 1.674E+02	 2.089E+01	 1.961E+02	 5.840E+00	-2.030E+03	 1.495E+02	 1.486E+04	 5.304E+02	 1.531E+03	 8.377E+00	 1.238E+01
  67.350	 1.265E+01	-5.785E-01	 3.847E-01	 1.063E+02	-8.242E+01	 6.213E+02	 1.355E+03	 2.152E+03	 4.149E+00	 2.393E+03	 8.600E+02	 1.683E+02	 2.091E+01	 1.941E+02	 6.625E+00	-2.035E+03	 1.612E+02	 1.478E+04	 4.216E+02	 1.532E+03	 8.377E+00	 1.243E+01
  67.400	 1.265E+01	-4.290E-01	 5.860E-01	 1.045E+02	-7.582E+01	 6.246E+02	 1.248E+03	 2.138E+03	 6.258E+00	 2.357E+03	 7.575E+02	 1.712E+02	 2.091E+01	 1.894E+02	 6.814E+00	-2.033E+03	 1.831E+02	 1.461E+04	 3.127E+02	 1.533E+03	 8.377E+00	 1.247E+01
  67.450	 1.272E+01	-6.136E-01	 9.176E-01	 1.003E+02	-6.963E+01	 6.273E+02	 1.129E+03	 2.064E+03	 7.926E+00	 2.259E+03	 6.571E+02	 1.650E+02	 2.090E+01	 1.851E+02	 6.165E+00	-2.030E+03	 2.310E+02	 1.444E+04	 1.961E+02	 1.531E+03	 8.377E+00	 1.245E+01
  67.500	 1.232E+01	-7.636E-01	 8.227E-01	 9.240E+01	-5.697E+01	 6.292E+02	 9.723E+02	 1.985E+03	 9.117E+00	 2.148E+03	 5.213E+02	 1.614E+02	 2.087E+01	 1.863E+02	 5.024E+00	-2.023E+03	 2.961E+02	 1.439E+04	 7.691E+01	 1.530E+03	 8.377E+00	 1.245E+01
  67.550	 1.223E+01	-1.084E+00	 1.049E+00	 9.145E+01	-5.455E+01	 6.313E+02	 8.465E+02	 1.888E+03	 1.035E+01	 2.026E+03	 4.214E+02	 1.524E+02	 2.084E+01	 1.850E+02	 3.433E+00	-2.032E+03	 3.653E+02	 1.430E+04	 4.791E+01	 1.527E+03	 8.377E+00	 1.240E+01
  67.600	 1.200E+01	-1.203E+00	 8.195E-01	 8.317E+01	-4.056E+01	 6.335E+02	 7.135E+02	 1.834E+03	 1.017E+01	 1.944E+03	 3.049E+02	 1.487E+02	 2.082E+01	 1.873E+02	 1.291E+00	-2.019E+03	 4.251E+02	 1.425E+04	 7.085E+00	 1.526E+03	 8.377E+00	 1.235E+01
  67.650	 1.232E+01	-1.654E+00	 6.136E-01	 8.620E+01	-3.667E+01	 6.345E+02	 5.852E+02	 1.798E+03	 1.332E+01	 1.882E+03	 1.874E+02	 1.490E+02	 2.082E+01	 1.810E+02	 2.929E+00	-2.022E+03	 3.923E+02	 1.400E+04	 1.746E+02	 1.526E+03	 8.377E+00	 1.234E+01
  67.700	 1.217E+01	-1.586E+00	 5.379E-01	 8.246E+01	-2.579E+01	 6.351E+02	 4.177E+02	 1.737E+03	 1.435E+01	 1.786E+03	 3.517E+01	 1.507E+02	 2.083E+01	 1.735E+02	 5.775E+00	-2.028E+03	 3.293E+02	 1.370E+04	 3.352E+02	 1.527E+03	 8.377E+00	 1.239E+01
  67.750	 1.251E+01	-4.477E-01	 8.352E-01	 7.760E+01	-1.973E+01	 6.347E+02	 2.562E+02	 1.615E+03	 1.420E+01	 1.633E+03	-9.703E+01	 1.351E+02	 2.084E+01	 1.638E+02	 8.217E+00	-2.025E+03	 2.920E+02	 1.336E+04	 4.639E+02	 1.528E+03	 8.377E+00	 1.241E+01
  67.800	 1.264E+01	-5.755E-01	 1.106E+00	 6.960E+01	-4.455E+00	 6.344E+02	 5.875E+01	 1.543E+03	 1.456E+01	 1.519E+03	-2.756E+02	 1.455E+02	 2.086E+01	 1.643E+02	 6.199E+00	-2.028E+03	 3.635E+02	 1.326E+04	 5.233E+02	 1.529E+03	 8.377E+00	 1.246E+01
  67.850	 1.268E+01	-7.018E-01	 8.277E-01	 7.331E+01	-3.202E+00	 6.330E+02	-8.509E+01	 1.466E+03	 1.899E+01	 1.413E+03	-4.008E+02	 1.371E+02	 2.086E+01	 1.631E+02	 4.101E+00	-2.029E+03	 4.588E+02	 1.316E+04	 6.024E+02	 1.529E+03	 8.377E+00	 1.252E+01
  67.900	 1.265E+01	-1.067E+00	 8.516E-01	 5.940E+01	 1.212E+01	 6.325E+02	-2.952E+02	 1.315E+03	 1.611E+01	 1.220E+03	-5.733E+02	 1.319E+02	 2.085E+01	 1.731E+02	 7.528E-01	-2.025E+03	 5.792E+02	 1.329E+04	 5.850E+02	 1.528E+03	 8.377E+00	 1.252E+01
  67.950	 1.295E+01	-8.721E-01	 7.912E-01	 6.333E+01	 1.810E+01	 6.303E+02	-4.365E+02	 1.312E+03	 2.099E+01	 1.186E+03	-7.098E+02	 1.312E+02	 2.084E+01	 1.679E+02	-8.296E-01	-2.026E+03	 6.563E+02	 1.307E+04	 6.105E+02	 1.527E+03	 8.377E+00	 1.249E+01
  68.000	 1.266E+01	-1.150E+00	 9.391E-02	 5.976E+01	 2.558E+01	 6.287E+02	-5.954E+02	 1.236E+03	 2.042E+01	 1.078E+03	-8.489E+02	 1.347E+02	 2.083E+01	 1.609E+02	-5.196E-01	-2.026E+03	 6.807E+02	 1.276E+04	 6.472E+02	 1.527E+03	 8.377E+00	 1.250E+01
  68.050	 1.284E+01	-8.615E-01	-6.202E-01	 5.425E+01	 3.671E+01	 6.261E+02	-7.561E+02	 1.198E+03	 1.906E+01	 1.007E+03	-9.972E+02	 1.424E+02	 2.082E+01	 1.500E+02	 1.243E+00	-2.030E+03	 6.786E+02	 1.237E+04	 8.182E+02	 1.526E+03	 8.377E+00	 1.248E+01
  68.100	 1.305E+01	-9.200E-01	-7.226E-01	 6.012E+01	 3.939E+01	 6.219E+02	-8.714E+02	 1.208E+03	 2.319E+01	 9.910E+02	-1.112E+03	 1.366E+02	 2.082E+01	 1.386E+02	 4.152E+00	-2.035E+03	 6.785E+02	 1.205E+04	 8.370E+02	 1.526E+03	 8.377E+00	 1.250E+01
  68.150	 1.323E+01	-9.017E-01	-3.907E-01	 5.691E+01	 4.959E+01	 6.191E+02	-1.009E+03	 1.213E+03	 2.196E+01	 9.653E+02	-1.248E+03	 1.376E+02	 2.081E+01	 1.422E+02	 1.846E+00	-2.040E+03	 8.095E+02	 1.216E+04	 9.721E+02	 1.526E+03	 8.377E+00	 1.251E+01
  68.200	 1.316E+01	-1.091E+00	-2.462E-01	 6.506E+01	 5.308E+01	 6.167E+02	-1.118E+03	 1.288E+03	 2.510E+01	 1.016E+03	-1.370E+03	 1.521E+02	 2.081E+01	 1.611E+02	-4.025E+00	-2.044E+03	 1.031E+03	 1.264E+04	 9.118E+02	 1.525E+03	 8.377E+00	 1.249E+01
  68.250	 1.369E+01	-1.252E+00	-5.508E-01	 5.846E+01	 6.105E+01	 6.139E+02	-1.228E+03	 1.292E+03	 1.946E+01	 9.946E+02	-1.479E+03	 1.479E+02	 2.081E+01	 1.802E+02	-9.942E+00	-2.052E+03	 1.247E+03	 1.315E+04	 9.328E+02	 1.524E+03	 8.377E+00	 1.253E+01
  68.300	 1.349E+01	-1.446E+00	-6.809E-01	 7.776E+01	 5.605E+01	 6.090E+02	-1.213E+03	 1.498E+03	 2.760E+01	 1.199E+03	-1.509E+03	 1.379E+02	 2.081E+01	 1.866E+02	-1.213E+01	-2.037E+03	 1.358E+03	 1.335E+04	 5.633E+02	 1.525E+03	 8.377E+00	 1.254E+01
  68.350	 1.335E+01	-1.687E+00	-1.507E-01	 7.217E+01	 6.658E+01	 6.044E+02	-1.294E+03	 1.535E+03	 2.592E+01	 1.217E+03	-1.597E+03	 1.406E+02	 2.081E+01	 1.851E+02	-1.008E+01	-2.045E+03	 1.344E+03	 1.330E+04	 5.127E+02	 1.526E+03	 8.377E+00	 1.255E+01
  68.400	 1.386E+01	-1.615E+00	-2.656E-01	 6.706E+01	 6.614E+01	 5.995E+02	-1.337E+03	 1.483E+03	 2.208E+01	 1.156E+03	-1.628E+03	 1.319E+02	 2.080E+01	 1.755E+02	-6.496E+00	-2.041E+03	 1.275E+03	 1.301E+04	 4.264E+02	 1.525E+03	 8.377E+00	 1.256E+01
  68.450	 1.377E+01	-1.120E+00	 1.108E-02	 8.014E+01	 6.309E+01	 5.949E+02	-1.323E+03	 1.610E+03	 2.947E+01	 1.284E+03	-1.641E+03	 1.464E+02	 2.079E+01	 1.726E+02	-6.239E+00	-2.031E+03	 1.261E+03	 1.281E+04	 2.597E+02	 1.524E+03	 8.377E+00	 1.255E+01
  68.500	 1.380E+01	-1.219E+00	-1.218E-01	 7.265E+01	 6.541E+01	 5.898E+02	-1.304E+03	 1.581E+03	 2.420E+01	 1.260E+03	-1.616E+03	 1.367E+02	 2.078E+01	 1.626E+02	-7.083E+00	-2.031E+03	 1.266E+03	 1.249E+04	 1.700E+02	 1.524E+03	 8.377E+00	 1.253E+01
  68.550	 1.403E+01	-1.037E+00	-7.301E-02	 8.018E+01	 6.347E+01	 5.855E+02	-1.260E+03	 1.685E+03	 2.784E+01	 1.372E+03	-1.596E+03	 1.494E+02	 2.078E+01	 1.590E+02	-9.331E+00	-2.029E+03	 1.281E+03	 1.229E+04	 6.428E+01	 1.524E+03	 8.377E+00	 1.253E+01
  68.600	 1.363E+01	-1.177E+00	-6.254E-02	 7.566E+01	 6.201E+01	 5.813E+02	-1.210E+03	 1.649E+03	 2.560E+01	 1.345E+03	-1.541E+03	 1.375E+02	 2.080E+01	 1.558E+02	-7.426E+00	-2.023E+03	 1.181E+03	 1.210E+04	 1.332E+02	 1.524E+03	 8.377E+00	 1.259E+01
  68.650	 1.340E+01	-8.673E-01	-1.072E-01	 7.676E+01	 5.863E+01	 5.778E+02	-1.125E+03	 1.677E+03	 2.721E+01	 1.390E+03	-1.465E+03	 1.355E+02	 2.081E+01	 1.533E+02	-5.348E+00	-2.026E+03	 1.042E+03	 1.195E+04	 2.051E+02	 1.525E+03	 8.377E+00	 1.263E+01
  68.700	 1.383E+01	-9.234E-01	-2.611E-02	 8.239E+01	 4.889E+01	 5.730E+02	-1.027E+03	 1.682E+03	 2.791E+01	 1.416E+03	-1.371E+03	 1.496E+02	 2.081E+01	 1.483E+02	-1.304E+00	-2.017E+03	 8.506E+02	 1.179E+04	 2.135E+02	 1.526E+03	 8.377E+00	 1.266E+01
  68.750	 1.361E+01	-1.808E+00	-1.434E-01	 7.153E+01	 4.583E+01	 5.691E+02	-9.440E+02	 1.579E+03	 2.231E+01	 1.333E+03	-1.268E+03	 1.342E+02	 2.081E+01	 1.429E+02	 2.843E+00	-2.019E+03	 6.571E+02	 1.167E+04	 3.768E+02	 1.526E+03	 8.377E+00	 1.269E+01
  68.800	 1.331E+01	-1.920E+00	-2.496E-01	 8.046E+01	 3.975E+01	 5.645E+02	-8.358E+02	 1.649E+03	 2.804E+01	 1.425E+03	-1.178E+03	 1.603E+02	 2.081E+01	 1.443E+02	 3.818E+00	-2.020E+03	 5.417E+02	 1.173E+04	 3.652E+02	 1.525E+03	 8.377E+00	 1.269E+01
  68.850	 1.358E+01	-1.644E+00	 9.376E-02	 6.471E+01	 3.785E+01	 5.611E+02	-7.155E+02	 1.525E+03	 1.960E+01	 1.331E+03	-1.033E+03	 1.302E+02	 2.080E+01	 1.495E+02	 2.937E+00	-2.030E+03	 4.755E+02	 1.195E+04	 5.470E+02	 1.524E+03	 8.377E+00	 1.270E+01
  68.900	 1.316E+01	-1.658E+00	-4.417E-01	 6.837E+01	 2.562E+01	 5.570E+02	-5.670E+02	 1.509E+03	 1.888E+01	 1.348E+03	-8.836E+02	 1.270E+02	 2.077E+01	 1.582E+02	 1.853E+00	-2.027E+03	 4.163E+02	 1.225E+04	 5.374E+02	 1.523E+03	 8.377E+00	 1.265E+01
  68.950	 1.340E+01	-1.365E+00	-3.151E-01	 6.803E+01	 1.922E+01	 5.527E+02	-4.242E+02	 1.509E+03	 1.816E+01	 1.380E+03	-7.436E+02	 1.298E+02	 2.075E+01	 1.629E+02	 4.028E+00	-2.023E+03	 2.852E+02	 1.244E+04	 5.118E+02	 1.522E+03	 8.377E+00	 1.262E+01
  69.000	 1.344E+01	-1.370E+00	-4.055E-01	 7.663E+01	 8.389E+00	 5.493E+02	-2.489E+02	 1.594E+03	 2.090E+01	 1.501E+03	-5.905E+02	 1.261E+02	 2.074E+01	 1.648E+02	 6.940E+00	-2.033E+03	 1.286E+02	 1.252E+04	 5.549E+02	 1.521E+03	 8.377E+00	 1.259E+01
  69.050	 1.383E+01	-9.095E-01	-3.076E-01	 7.155E+01	 7.372E+00	 5.464E+02	-1.238E+02	 1.597E+03	 1.648E+01	 1.531E+03	-4.689E+02	 1.340E+02	 2.074E+01	 1.574E+02	 1.228E+01	-2.029E+03	-5.941E+01	 1.239E+04	 5.300E+02	 1.520E+03	 8.377E+00	 1.259E+01
  69.100	 1.387E+01	-8.397E-01	-1.886E-01	 7.683E+01	-4.007E+00	 5.439E+02	 5.966E+01	 1.638E+03	 1.691E+01	 1.612E+03	-2.991E+02	 1.215E+02	 2.073E+01	 1.546E+02	 1.385E+01	-2.038E+03	-1.453E+02	 1.235E+04	 6.440E+02	 1.520E+03	 8.377E+00	 1.260E+01
  69.150	 1.341E+01	-1.471E+00	-1.040E+00	 7.952E+01	-1.658E+01	 5.418E+02	 2.129E+02	 1.624E+03	 1.452E+01	 1.632E+03	-1.461E+02	 1.239E+02	 2.073E+01	 1.526E+02	 1.164E+01	-2.047E+03	-1.149E+02	 1.236E+04	 7.693E+02	 1.520E+03	 8.377E+00	 1.259E+01
  69.200	 1.343E+01	-1.309E+00	-1.601E+00	 7.285E+01	-1.918E+01	 5.402E+02	 3.235E+02	 1.591E+03	 9.853E+00	 1.624E+03	-3.153E+01	 1.247E+02	 2.073E+01	 1.593E+02	 9.632E+00	-2.036E+03	-5.657E+01	 1.260E+04	 5.746E+02	 1.519E+03	 8.377E+00	 1.261E+01
  69.250	 1.387E+01	-1.819E+00	-1.237E+00	 6.616E+01	-2.276E+01	 5.393E+02	 4.515E+02	 1.559E+03	 7.123E+00	 1.620E+03	 1.003E+02	 1.210E+02	 2.073E+01	 1.696E+02	 6.305E+00	-2.032E+03	 2.847E+01	 1.293E+04	 5.054E+02	 1.520E+03	 8.377E+00	 1.260E+01
  69.300	 1.398E+01	-2.129E+00	-1.205E+00	 7.634E+01	-3.373E+01	 5.388E+02	 5.772E+02	 1.632E+03	 1.193E+01	 1.719E+03	 2.064E+02	 1.481E+02	 2.074E+01	 1.804E+02	 6.365E+00	-2.041E+03	 3.120E+01	 1.324E+04	 4.722E+02	 1.520E+03	 8.377E+00	 1.263E+01
  69.350	 1.398E+01	-2.139E+00	-5.062E-01	 7.152E+01	-3.979E+01	 5.401E+02	 6.883E+02	 1.599E+03	 8.861E+00	 1.711E+03	 3.207E+02	 1.400E+02	 2.074E+01	 1.835E+02	 8.358E+00	-2.042E+03	-2.235E+01	 1.335E+04	 3.870E+02	 1.520E+03	 8.377E+00	 1.267E+01
  69.400	 1.357E+01	-2.051E+00	-3.226E-01	 7.527E+01	-4.807E+01	 5.419E+02	 8.241E+02	 1.652E+03	 1.021E+01	 1.793E+03	 4.424E+02	 1.436E+02	 2.073E+01	 1.814E+02	 8.724E+00	-2.038E+03	-5.025E+01	 1.326E+04	 2.901E+02	 1.520E+03	 8.377E+00	 1.265E+01
  69.450	 1.358E+01	-2.164E+00	-4.160E-01	 8.167E+01	-5.740E+01	 5.447E+02	 9.385E+02	 1.715E+03	 8.935E+00	 1.879E+03	 5.402E+02	 1.482E+02	 2.072E+01	 1.713E+02	 9.314E+00	-2.033E+03	-8.077E+01	 1.294E+04	 2.124E+02	 1.519E+03	 8.377E+00	 1.265E+01
  69.500	 1.361E+01	-2.448E+00	-3.323E-01	 7.608E+01	-5.877E+01	 5.483E+02	 1.021E+03	 1.711E+03	 3.494E+00	 1.892E+03	 6.216E+02	 1.425E+02	 2.071E+01	 1.594E+02	 9.475E+00	-2.024E+03	-1.016E+02	 1.258E+04	 5.974E+00	 1.519E+03	 8.377E+00	 1.264E+01
  69.550	 1.317E+01	-2.186E+00	 1.469E-01	 8.138E+01	-6.408E+01	 5.518E+02	 1.129E+03	 1.794E+03	 3.908E+00	 1.998E+03	 7.090E+02	 1.477E+02	 2.071E+01	 1.518E+02	 9.278E+00	-2.018E+03	-1.231E+02	 1.234E+04	 5.452E+00	 1.518E+03	 8.377E+00	 1.263E+01
  69.600	 1.334E+01	-1.831E+00	-1.516E-02	 8.775E+01	-7.366E+01	 5.556E+02	 1.212E+03	 1.833E+03	 2.282E+00	 2.054E+03	 7.805E+02	 1.510E+02	 2.071E+01	 1.483E+02	 1.186E+01	-2.020E+03	-2.089E+02	 1.226E+04	 5.340E+01	 1.518E+03	 8.377E+00	 1.267E+01
  69.650	 1.293E+01	-2.110E+00	-4.701E-01	 9.008E+01	-7.971E+01	 5.592E+02	 1.311E+03	 1.861E+03	 2.038E+00	 2.104E+03	 8.703E+02	 1.443E+02	 2.071E+01	 1.546E+02	 1.256E+01	-2.018E+03	-2.685E+02	 1.244E+04	 7.262E+01	 1.518E+03	 8.377E+00	 1.268E+01
  69.700	 1.280E+01	-2.266E+00	 3.287E-02	 8.501E+01	-7.956E+01	 5.638E+02	 1.400E+03	 1.879E+03	-1.337E+00	 2.140E+03	 9.535E+02	 1.249E+02	 2.071E+01	 1.577E+02	 1.493E+01	-2.015E+03	-3.520E+02	 1.260E+04	 2.568E+02	 1.518E+03	 8.377E+00	 1.268E+01
  69.750	 1.288E+01	-1.982E+00	-1.840E-01	 9.252E+01	-8.567E+01	 5.685E+02	 1.474E+03	 1.945E+03	-8.570E-02	 2.221E+03	 1.012E+03	 1.352E+02	 2.070E+01	 1.621E+02	 1.579E+01	-2.017E+03	-3.840E+02	 1.280E+04	 3.924E+02	 1.518E+03	 8.377E+00	 1.267E+01
  69.800	 1.279E+01	-1.952E+00	-4.939E-02	 8.998E+01	-8.738E+01	 5.731E+02	 1.533E+03	 1.930E+03	-2.541E+00	 2.219E+03	 1.072E+03	 1.220E+02	 2.069E+01	 1.632E+02	 1.503E+01	-2.021E+03	-3.586E+02	 1.294E+04	 4.913E+02	 1.517E+03	 8.377E+00	 1.267E+01
  69.850	 1.297E+01	-2.112E+00	-5.336E-02	 9.775E+01	-9.513E+01	 5.772E+02	 1.581E+03	 1.962E+03	-1.480E+00	 2.261E+03	 1.113E+03	 1.352E+02	 2.068E+01	 1.687E+02	 1.215E+01	-2.025E+03	-2.706E+02	 1.316E+04	 5.681E+02	 1.516E+03	 8.377E+00	 1.265E+01
  69.900	 1.321E+01	-1.723E+00	-2.988E-01	 8.766E+01	-9.018E+01	 5.827E+02	 1.602E+03	 1.910E+03	-6.429E+00	 2.215E+03	 1.144E+03	 1.222E+02	 2.068E+01	 1.746E+02	 1.072E+01	-2.022E+03	-2.002E+02	 1.338E+04	 5.818E+02	 1.516E+03	 8.377E+00	 1.265E+01
  69.950	 1.313E+01	-1.878E+00	-2.921E-01	 9.896E+01	-9.864E+01	 5.868E+02	 1.648E+03	 1.973E+03	-2.455E+00	 2.286E+03	 1.177E+03	 1.274E+02	 2.067E+01	 1.758E+02	 1.035E+01	-2.036E+03	-1.443E+02	 1.346E+04	 7.382E+02	 1.515E+03	 8.377E+00	 1.264E+01
  70.000	 1.338E+01	-1.810E+00	-1.765E-02	 9.869E+01	-9.701E+01	 5.920E+02	 1.649E+03	 1.983E+03	-2.100E+00	 2.295E+03	 1.176E+03	 1.339E+02	 2.067E+01	 1.725E+02	 1.064E+01	-2.034E+03	-8.765E+01	 1.342E+04	 7.676E+02	 1.515E+03	 8.377E+00	 1.262E+01
  70.050	 1.352E+01	-1.605E+00	-4.740E-01	 9.649E+01	-9.320E+01	 5.972E+02	 1.654E+03	 1.997E+03	-1.620E+00	 2.311E+03	 1.177E+03	 1.200E+02	 2.066E+01	 1.680E+02	 1.184E+01	-2.036E+03	-2.336E+01	 1.332E+04	 8.757E+02	 1.514E+03	 8.377E+00	 1.264E+01
  70.100	 1.334E+01	-1.972E+00	-3.442E-01	 9.154E+01	-8.978E+01	 6.011E+02	 1.592E+03	 1.949E+03	-4.978E+00	 2.250E+03	 1.128E+03	 1.284E+02	 2.065E+01	 1.722E+02	 8.805E+00	-2.039E+03	 1.554E+02	 1.338E+04	 8.572E+02	 1.514E+03	 8.377E+00	 1.263E+01
  70.150	 1.368E+01	-1.736E+00	-3.523E-01	 8.948E+01	-8.797E+01	 6.054E+02	 1.560E+03	 1.943E+03	-6.455E+00	 2.236E+03	 1.098E+03	 1.158E+02	 2.064E+01	 1.675E+02	 4.829E+00	-2.043E+03	 3.808E+02	 1.325E+04	 8.572E+02	 1.513E+03	 8.377E+00	 1.261E+01
  70.200	 1.355E+01	-1.400E+00	-5.788E-01	 8.772E+01	-8.117E+01	 6.089E+02	 1.502E+03	 1.967E+03	-5.475E+00	 2.247E+03	 1.036E+03	 1.154E+02	 2.063E+01	 1.695E+02	 1.263E-01	-2.043E+03	 6.236E+02	 1.326E+04	 8.676E+02	 1.513E+03	 8.377E+00	 1.261E+01
  70.250	 1.345E+01	-1.662E+00	-8.282E-01	 9.613E+01	-8.029E+01	 6.116E+02	 1.461E+03	 2.067E+03	-4.625E-01	 2.336E+03	 9.758E+02	 1.311E+02	 2.063E+01	 1.720E+02	-4.862E+00	-2.046E+03	 8.525E+02	 1.329E+04	 8.686E+02	 1.513E+03	 8.377E+00	 1.257E+01
  70.300	 1.387E+01	-2.051E+00	-8.678E-01	 1.053E+02	-8.081E+01	 6.154E+02	 1.400E+03	 2.152E+03	 3.287E+00	 2.406E+03	 8.971E+02	 1.394E+02	 2.064E+01	 1.738E+02	-5.332E+00	-2.041E+03	 9.663E+02	 1.331E+04	 7.628E+02	 1.513E+03	 8.377E+00	 1.260E+01
  70.350	 1.398E+01	-2.115E+00	-1.145E-01	 1.087E+02	-7.589E+01	 6.172E+02	 1.282E+03	 2.192E+03	 6.864E+00	 2.420E+03	 7.717E+02	 1.536E+02	 2.065E+01	 1.802E+02	-4.844E+00	-2.049E+03	 1.033E+03	 1.338E+04	 7.734E+02	 1.514E+03	 8.377E+00	 1.264E+01
  70.400	 1.367E+01	-2.228E+00	-1.937E-01	 1.065E+02	-6.866E+01	 6.185E+02	 1.147E+03	 2.183E+03	 8.084E+00	 2.381E+03	 6.415E+02	 1.566E+02	 2.064E+01	 1.787E+02	-5.566E+00	-2.038E+03	 1.111E+03	 1.327E+04	 6.055E+02	 1.513E+03	 8.377E+00	 1.264E+01
  70.450	 1.371E+01	-2.296E+00	 5.226E-02	 1.078E+02	-5.941E+01	 6.192E+02	 1.018E+03	 2.210E+03	 1.377E+01	 2.380E+03	 5.092E+02	 1.621E+02	 2.065E+01	 1.712E+02	-7.621E+00	-2.023E+03	 1.199E+03	 1.301E+04	 3.751E+02	 1.513E+03	 8.377E+00	 1.266E+01
  70.500	 1.315E+01	-1.960E+00	-2.007E-01	 1.117E+02	-5.455E+01	 6.193E+02	 8.545E+02	 2.217E+03	 1.734E+01	 2.350E+03	 3.475E+02	 1.725E+02	 2.065E+01	 1.623E+02	-8.427E+00	-2.025E+03	 1.239E+03	 1.272E+04	 3.196E+02	 1.513E+03	 8.377E+00	 1.267E+01
  70.550	 1.337E+01	-1.912E+00	 1.139E-01	 1.001E+02	-3.754E+01	 6.192E+02	 6.632E+02	 2.133E+03	 1.863E+01	 2.226E+03	 1.790E+02	 1.623E+02	 2.065E+01	 1.564E+02	-8.972E+00	-2.014E+03	 1.236E+03	 1.254E+04	 1.445E+02	 1.514E+03	 8.377E+00	 1.268E+01
  70.600	 1.387E+01	-2.211E+00	-1.416E-01	 1.008E+02	-3.010E+01	 6.189E+02	 4.811E+02	 2.087E+03	 2.298E+01	 2.142E+03	 1.092E+01	 1.644E+02	 2.065E+01	 1.523E+02	-6.284E+00	-2.014E+03	 1.135E+03	 1.245E+04	 2.566E+02	 1.514E+03	 8.377E+00	 1.269E+01
  70.650	 1.345E+01	-1.955E+00	 1.119E-01	 9.515E+01	-2.060E+01	 6.190E+02	 2.778E+02	 1.976E+03	 2.316E+01	 1.989E+03	-1.637E+02	 1.623E+02	 2.065E+01	 1.554E+02	-2.833E+00	-2.013E+03	 9.989E+02	 1.257E+04	 2.753E+02	 1.514E+03	 8.377E+00	 1.271E+01
  70.700	 1.368E+01	-1.720E+00	 2.945E-01	 8.740E+01	-9.619E+00	 6.189E+02	 7.295E+01	 1.855E+03	 2.276E+01	 1.825E+03	-3.379E+02	 1.611E+02	 2.066E+01	 1.611E+02	-5.247E-01	-2.009E+03	 8.808E+02	 1.279E+04	 2.799E+02	 1.515E+03	 8.377E+00	 1.274E+01
  70.750	 1.387E+01	-1.581E+00	 5.574E-01	 8.690E+01	-3.467E+00	 6.186E+02	-1.047E+02	 1.755E+03	 2.523E+01	 1.689E+03	-4.892E+02	 1.574E+02	 2.067E+01	 1.633E+02	 1.150E+00	-2.011E+03	 7.893E+02	 1.300E+04	 4.218E+02	 1.515E+03	 8.377E+00	 1.274E+01
  70.800	 1.346E+01	-1.483E+00	 4.501E-01	 7.340E+01	 9.361E+00	 6.175E+02	-3.098E+02	 1.568E+03	 2.345E+01	 1.461E+03	-6.487E+02	 1.420E+02	 2.067E+01	 1.675E+02	 7.079E-01	-2.018E+03	 7.574E+02	 1.326E+04	 6.010E+02	 1.515E+03	 8.377E+00	 1.277E+01
  70.850	 1.367E+01	-1.848E+00	 3.773E-01	 7.493E+01	 1.570E+01	 6.161E+02	-4.711E+02	 1.500E+03	 2.712E+01	 1.359E+03	-7.909E+02	 1.402E+02	 2.066E+01	 1.702E+02	-1.116E+00	-2.024E+03	 7.645E+02	 1.350E+04	 5.923E+02	 1.515E+03	 8.377E+00	 1.276E+01
  70.900	 1.331E+01	-1.607E+00	 5.445E-01	 7.385E+01	 2.213E+01	 6.141E+02	-6.340E+02	 1.416E+03	 2.873E+01	 1.241E+03	-9.308E+02	 1.378E+02	 2.065E+01	 1.739E+02	-1.705E+00	-2.023E+03	 7.494E+02	 1.376E+04	 6.620E+02	 1.514E+03	 8.377E+00	 1.275E+01
  70.950	 1.366E+01	-1.336E+00	-1.101E-01	 5.310E+01	 3.871E+01	 6.127E+02	-8.396E+02	 1.206E+03	 2.087E+01	 9.907E+02	-1.085E+03	 1.228E+02	 2.065E+01	 1.796E+02	 3.820E-01	-2.038E+03	 6.778E+02	 1.403E+04	 8.446E+02	 1.513E+03	 8.377E+00	 1.275E+01
  71.000	 1.374E+01	-1.147E+00	-2.797E-01	 5.323E+01	 4.883E+01	 6.110E+02	-9.960E+02	 1.173E+03	 2.273E+01	 9.245E+02	-1.230E+03	 1.388E+02	 2.064E+01	 1.853E+02	 2.278E+00	-2.039E+03	 6.137E+02	 1.426E+04	 9.898E+02	 1.513E+03	 8.377E+00	 1.275E+01
  71.050	 1.356E+01	-1.404E+00	 7.469E-02	 4.563E+01	 5.777E+01	 6.080E+02	-1.117E+03	 1.103E+03	 2.127E+01	 8.291E+02	-1.333E+03	 1.272E+02	 2.064E+01	 1.836E+02	 3.603E+00	-2.052E+03	 5.775E+02	 1.433E+04	 1.034E+03	 1.513E+03	 8.377E+00	 1.276E+01
  71.100	 1.345E+01	-1.407E+00	-1.753E-01	 5.556E+01	 5.858E+01	 6.058E+02	-1.197E+03	 1.168E+03	 2.499E+01	 8.747E+02	-1.426E+03	 1.361E+02	 2.064E+01	 1.864E+02	 2.254E+00	-2.043E+03	 6.140E+02	 1.444E+04	 9.389E+02	 1.513E+03	 8.377E+00	 1.276E+01
  71.150	 1.292E+01	-1.552E+00	-4.026E-01	 6.134E+01	 5.738E+01	 6.029E+02	-1.254E+03	 1.216E+03	 2.250E+01	 9.081E+02	-1.493E+03	 1.382E+02	 2.065E+01	 1.852E+02	 1.606E-02	-2.035E+03	 6.816E+02	 1.444E+04	 8.913E+02	 1.514E+03	 8.377E+00	 1.279E+01
  71.200	 1.260E+01	-6.780E-01	-3.756E-01	 6.724E+01	 6.634E+01	 5.996E+02	-1.319E+03	 1.344E+03	 2.919E+01	 1.018E+03	-1.584E+03	 1.620E+02	 2.067E+01	 1.814E+02	-2.180E+00	-2.045E+03	 7.417E+02	 1.439E+04	 8.763E+02	 1.515E+03	 8.377E+00	 1.284E+01
  71.250	 1.302E+01	-8.685E-01	 2.593E-01	 6.544E+01	 6.727E+01	 5.962E+02	-1.371E+03	 1.343E+03	 2.559E+01	 1.005E+03	-1.636E+03	 1.642E+02	 2.068E+01	 1.832E+02	-2.080E+00	-2.042E+03	 7.362E+02	 1.448E+04	 9.222E+02	 1.515E+03	 8.377E+00	 1.286E+01
  71.300	 1.304E+01	-1.263E+00	 8.431E-01	 5.662E+01	 7.153E+01	 5.926E+02	-1.402E+03	 1.322E+03	 2.036E+01	 9.760E+02	-1.662E+03	 1.488E+02	 2.068E+01	 1.897E+02	-8.253E-01	-2.043E+03	 6.879E+02	 1.471E+04	 8.708E+02	 1.516E+03	 8.377E+00	 1.289E+01
  71.350	 1.306E+01	-1.211E+00	 3.355E-01	 7.563E+01	 6.409E+01	 5.882E+02	-1.379E+03	 1.496E+03	 2.701E+01	 1.151E+03	-1.678E+03	 1.710E+02	 2.067E+01	 2.010E+02	 5.526E-01	-2.034E+03	 6.201E+02	 1.502E+04	 6.245E+02	 1.516E+03	 8.377E+00	 1.289E+01
  71.400	 1.283E+01	-8.794E-01	 2.869E-01	 7.454E+01	 6.682E+01	 5.844E+02	-1.361E+03	 1.581E+03	 2.711E+01	 1.238E+03	-1.679E+03	 1.702E+02	 2.066E+01	 2.051E+02	 5.783E-01	-2.032E+03	 5.582E+02	 1.515E+04	 5.025E+02	 1.515E+03	 8.377E+00	 1.288E+01
  71.450	 1.310E+01	-8.859E-01	 3.332E-01	 8.198E+01	 5.830E+01	 5.809E+02	-1.281E+03	 1.653E+03	 2.732E+01	 1.326E+03	-1.617E+03	 1.648E+02	 2.065E+01	 2.049E+02	 6.848E-01	-2.022E+03	 4.735E+02	 1.510E+04	 3.006E+02	 1.514E+03	 8.377E+00	 1.286E+01
  71.500	 1.286E+01	-1.494E+00	-7.745E-02	 8.311E+01	 5.603E+01	 5.765E+02	-1.206E+03	 1.714E+03	 2.647E+01	 1.404E+03	-1.557E+03	 1.673E+02	 2.064E+01	 1.959E+02	 2.257E+00	-2.019E+03	 3.359E+02	 1.482E+04	 2.088E+02	 1.513E+03	 8.377E+00	 1.284E+01
  71.550	 1.317E+01	-1.873E+00	-1.541E-02	 8.306E+01	 5.500E+01	 5.718E+02	-1.098E+03	 1.781E+03	 2.538E+01	 1.493E+03	-1.466E+03	 1.625E+02	 2.063E+01	 1.846E+02	 5.211E+00	-2.014E+03	 1.480E+02	 1.449E+04	 8.580E+01	 1.512E+03	 8.377E+00	 1.282E+01
  71.600	 1.352E+01	-1.621E+00	 4.776E-01	 9.058E+01	 4.573E+01	 5.674E+02	-9.728E+02	 1.841E+03	 2.899E+01	 1.579E+03	-1.357E+03	 1.591E+02	 2.063E+01	 1.800E+02	 9.254E+00	-2.012E+03	-8.094E+01	 1.429E+04	 5.533E+01	 1.512E+03	 8.377E+00	 1.282E+01
  71.650	 1.361E+01	-1.801E+00	 2.943E-01	 8.591E+01	 4.610E+01	 5.628E+02	-8.920E+02	 1.818E+03	 2.586E+01	 1.574E+03	-1.274E+03	 1.638E+02	 2.065E+01	 1.717E+02	 1.624E+01	-2.013E+03	-3.640E+02	 1.407E+04	 1.394E+02	 1.513E+03	 8.377E+00	 1.286E+01
  71.700	 1.368E+01	-1.715E+00	 1.340E-01	 7.918E+01	 4.314E+01	 5.583E+02	-7.906E+02	 1.751E+03	 2.397E+01	 1.530E+03	-1.163E+03	 1.611E+02	 2.068E+01	 1.709E+02	 1.972E+01	-2.016E+03	-5.570E+02	 1.408E+04	 2.272E+02	 1.516E+03	 8.377E+00	 1.294E+01
  71.750	 1.401E+01	-1.235E+00	 1.618E-01	 8.544E+01	 3.271E+01	 5.544E+02	-6.466E+02	 1.766E+03	 2.671E+01	 1.576E+03	-1.027E+03	 1.642E+02	 2.071E+01	 1.821E+02	 2.046E+01	-2.016E+03	-6.570E+02	 1.437E+04	 3.801E+02	 1.518E+03	 8.377E+00	 1.298E+01
  71.800	 1.383E+01	-8.532E-01	-9.033E-02	 7.817E+01	 2.728E+01	 5.502E+02	-5.220E+02	 1.693E+03	 2.460E+01	 1.531E+03	-8.903E+02	 1.592E+02	 2.072E+01	 1.868E+02	 1.761E+01	-2.023E+03	-6.458E+02	 1.454E+04	 4.702E+02	 1.519E+03	 8.377E+00	 1.303E+01
  71.850	 1.354E+01	-1.629E+00	 2.777E-01	 7.893E+01	 1.719E+01	 5.467E+02	-3.940E+02	 1.658E+03	 2.364E+01	 1.526E+03	-7.583E+02	 1.573E+02	 2.072E+01	 1.903E+02	 1.534E+01	-2.017E+03	-6.156E+02	 1.465E+04	 6.181E+02	 1.518E+03	 8.377E+00	 1.305E+01
  71.900	 1.362E+01	-1.547E+00	 5.138E-01	 7.002E+01	 1.551E+01	 5.438E+02	-2.847E+02	 1.600E+03	 2.033E+01	 1.494E+03	-6.388E+02	 1.427E+02	 2.070E+01	 1.861E+02	 1.511E+01	-2.044E+03	-6.131E+02	 1.455E+04	 9.639E+02	 1.518E+03	 8.377E+00	 1.305E+01
  71.950	 1.347E+01	-1.407E+00	-3.342E-02	 7.204E+01	 7.572E+00	 5.411E+02	-1.323E+02	 1.641E+03	 2.079E+01	 1.569E+03	-4.985E+02	 1.345E+02	 2.068E+01	 1.821E+02	 1.529E+01	-2.034E+03	-6.136E+02	 1.443E+04	 9.079E+02	 1.516E+03	 8.377E+00	 1.302E+01
  72.000	 1.348E+01	-1.513E+00	-1.673E-01	 7.206E+01	-1.317E+00	 5.394E+02	-8.409E+00	 1.646E+03	 1.604E+01	 1.602E+03	-3.782E+02	 1.406E+02	 2.066E+01	 1.765E+02	 1.680E+01	-2.040E+03	-6.267E+02	 1.426E+04	 1.112E+03	 1.515E+03	 8.377E+00	 1.299E+01
  72.050	 1.394E+01	-1.374E+00	-1.148E-01	 8.445E+01	-1.454E+01	 5.376E+02	 1.561E+02	 1.767E+03	 1.819E+01	 1.757E+03	-2.439E+02	 1.417E+02	 2.064E+01	 1.794E+02	 1.740E+01	-2.035E+03	-5.972E+02	 1.428E+04	 1.014E+03	 1.513E+03	 8.377E+00	 1.296E+01
  72.100	 1.349E+01	-9.470E-01	 1.359E-02	 8.263E+01	-1.520E+01	 5.367E+02	 2.771E+02	 1.839E+03	 1.547E+01	 1.854E+03	-1.420E+02	 1.501E+02	 2.064E+01	 1.763E+02	 1.687E+01	-2.049E+03	-5.135E+02	 1.417E+04	 1.057E+03	 1.513E+03	 8.377E+00	 1.295E+01
  72.150	 1.320E+01	-6.251E-01	-1.501E-01	 9.053E+01	-2.748E+01	 5.360E+02	 4.228E+02	 1.914E+03	 1.512E+01	 1.960E+03	-1.783E+01	 1.512E+02	 2.065E+01	 1.807E+02	 1.344E+01	-2.041E+03	-3.536E+02	 1.423E+04	 9.436E+02	 1.514E+03	 8.377E+00	 1.297E+01
  72.200	 1.361E+01	-9.567E-01	-4.029E-01	 8.683E+01	-2.967E+01	 5.367E+02	 5.173E+02	 1.916E+03	 1.222E+01	 1.983E+03	 7.242E+01	 1.661E+02	 2.067E+01	 1.819E+02	 1.128E+01	-2.036E+03	-2.062E+02	 1.424E+04	 8.010E+02	 1.515E+03	 8.377E+00	 1.302E+01
  72.250	 1.329E+01	-9.499E-01	-2.707E-02	 8.734E+01	-3.974E+01	 5.381E+02	 6.692E+02	 1.911E+03	 1.013E+01	 2.013E+03	 2.196E+02	 1.474E+02	 2.069E+01	 1.859E+02	 8.760E+00	-2.036E+03	-6.260E+01	 1.432E+04	 7.110E+02	 1.516E+03	 8.377E+00	 1.307E+01
  72.300	 1.345E+01	-9.917E-01	-3.258E-01	 8.956E+01	-4.925E+01	 5.399E+02	 7.779E+02	 1.903E+03	 1.025E+01	 2.030E+03	 3.255E+02	 1.609E+02	 2.070E+01	 1.860E+02	 7.675E+00	-2.034E+03	 3.969E+01	 1.430E+04	 5.873E+02	 1.518E+03	 8.377E+00	 1.312E+01
  72.350	 1.376E+01	-1.362E+00	-5.961E-02	 8.606E+01	-5.728E+01	 5.429E+02	 8.980E+02	 1.843E+03	 8.822E+00	 1.999E+03	 4.555E+02	 1.568E+02	 2.071E+01	 1.869E+02	 5.573E+00	-2.029E+03	 1.446E+02	 1.429E+04	 4.188E+02	 1.518E+03	 8.377E+00	 1.314E+01
  72.400	 1.355E+01	-1.702E+00	-3.042E-01	 8.140E+01	-6.248E+01	 5.469E+02	 9.943E+02	 1.790E+03	 6.135E+00	 1.969E+03	 5.618E+02	 1.627E+02	 2.069E+01	 1.855E+02	 4.673E+00	-2.030E+03	 2.142E+02	 1.424E+04	 2.276E+02	 1.517E+03	 8.377E+00	 1.313E+01
  72.450	 1.367E+01	-1.184E+00	-7.556E-01	 8.639E+01	-7.128E+01	 5.504E+02	 1.129E+03	 1.831E+03	 7.332E+00	 2.039E+03	 6.853E+02	 1.509E+02	 2.067E+01	 1.857E+02	 4.373E+00	-2.031E+03	 2.593E+02	 1.419E+04	 2.994E+02	 1.515E+03	 8.377E+00	 1.309E+01
  72.500	 1.400E+01	-1.054E+00	 2.889E-02	 7.997E+01	-6.898E+01	 5.555E+02	 1.189E+03	 1.810E+03	 9.064E-01	 2.032E+03	 7.497E+02	 1.661E+02	 2.065E+01	 1.833E+02	 3.572E+00	-2.013E+03	 3.000E+02	 1.407E+04	 1.086E+02	 1.514E+03	 8.377E+00	 1.306E+01
  72.550	 1.381E+01	-9.587E-01	-2.347E-01	 7.946E+01	-7.240E+01	 5.605E+02	 1.301E+03	 1.858E+03	-3.833E+00	 2.104E+03	 8.477E+02	 1.600E+02	 2.066E+01	 1.759E+02	 4.058E+00	-2.008E+03	 2.960E+02	 1.384E+04	 2.162E+02	 1.514E+03	 8.377E+00	 1.306E+01
  72.600	 1.388E+01	-1.107E+00	 1.986E-03	 9.464E+01	-8.508E+01	 5.645E+02	 1.455E+03	 1.998E+03	-7.384E-01	 2.276E+03	 9.647E+02	 1.540E+02	 2.068E+01	 1.746E+02	 5.183E+00	-2.018E+03	 2.623E+02	 1.374E+04	 4.093E+02	 1.516E+03	 8.377E+00	 1.310E+01
  72.650	 1.412E+01	-1.130E+00	 8.431E-02	 9.432E+01	-8.833E+01	 5.694E+02	 1.518E+03	 2.002E+03	-4.286E+00	 2.295E+03	 1.023E+03	 1.595E+02	 2.070E+01	 1.742E+02	 7.040E+00	-2.016E+03	 2.161E+02	 1.368E+04	 3.474E+02	 1.518E+03	 8.377E+00	 1.316E+01
  72.700	 1.358E+01	-8.340E-01	-4.539E-01	 9.607E+01	-9.087E+01	 5.740E+02	 1.603E+03	 2.056E+03	-4.051E+00	 2.368E+03	 1.089E+03	 1.389E+02	 2.072E+01	 1.737E+02	 9.669E+00	-2.023E+03	 1.702E+02	 1.366E+04	 5.245E+02	 1.519E+03	 8.377E+00	 1.325E+01
  72.750	 1.344E+01	-4.397E-01	-3.889E-01	 9.531E+01	-9.508E+01	 5.783E+02	 1.640E+03	 2.018E+03	-5.665E+00	 2.340E+03	 1.134E+03	 1.386E+02	 2.073E+01	 1.748E+02	 7.616E+00	-2.023E+03	 2.346E+02	 1.366E+04	 5.181E+02	 1.520E+03	 8.377E+00	 1.326E+01
  72.800	 1.330E+01	-4.908E-01	-5.823E-02	 9.349E+01	-9.491E+01	 5.827E+02	 1.658E+03	 2.004E+03	-6.790E+00	 2.331E+03	 1.154E+03	 1.464E+02	 2.073E+01	 1.746E+02	 4.094E+00	-2.018E+03	 3.437E+02	 1.361E+04	 4.974E+02	 1.519E+03	 8.377E+00	 1.327E+01
  72.850	 1.331E+01	-4.503E-01	-4.820E-01	 8.660E+01	-9.412E+01	 5.872E+02	 1.680E+03	 1.945E+03	-1.023E+01	 2.279E+03	 1.189E+03	 1.229E+02	 2.071E+01	 1.682E+02	 3.468E+00	-2.024E+03	 4.022E+02	 1.341E+04	 5.858E+02	 1.518E+03	 8.377E+00	 1.326E+01
  72.900	 1.349E+01	-5.662E-01	-1.076E-01	 9.429E+01	-9.503E+01	 5.916E+02	 1.688E+03	 2.001E+03	-6.772E+00	 2.334E+03	 1.185E+03	 1.351E+02	 2.069E+01	 1.609E+02	 3.618E+00	-2.026E+03	 4.464E+02	 1.317E+04	 6.916E+02	 1.518E+03	 8.377E+00	 1.324E+01
  72.950	 1.331E+01	 1.556E-02	-3.333E-01	 9.709E+01	-9.608E+01	 5.953E+02	 1.689E+03	 2.012E+03	-5.728E+00	 2.345E+03	 1.184E+03	 1.362E+02	 2.068E+01	 1.558E+02	 3.510E+00	-2.032E+03	 4.971E+02	 1.300E+04	 8.375E+02	 1.516E+03	 8.377E+00	 1.321E+01
  73.000	 1.322E+01	-1.094E-01	-5.411E-01	 8.923E+01	-8.929E+01	 5.998E+02	 1.634E+03	 1.945E+03	-8.819E+00	 2.267E+03	 1.146E+03	 1.279E+02	 2.068E+01	 1.566E+02	 4.828E+00	-2.034E+03	 5.330E+02	 1.300E+04	 8.467E+02	 1.516E+03	 8.377E+00	 1.322E+01
  73.050	 1.340E+01	-2.389E-01	-9.660E-01	 1.052E+02	-9.523E+01	 6.035E+02	 1.614E+03	 2.033E+03	-4.209E-01	 2.348E+03	 1.106E+03	 1.519E+02	 2.069E+01	 1.628E+02	 2.688E+00	-2.042E+03	 6.569E+02	 1.316E+04	 9.417E+02	 1.516E+03	 8.377E+00	 1.323E+01
  73.100	 1.398E+01	-6.244E-01	-7.818E-01	 9.065E+01	-8.486E+01	 6.075E+02	 1.523E+03	 1.911E+03	-3.969E+00	 2.210E+03	 1.043E+03	 1.292E+02	 2.069E+01	 1.742E+02	 9.711E-03	-2.040E+03	 8.097E+02	 1.346E+04	 8.995E+02	 1.516E+03	 8.377E+00	 1.327E+01
  73.150	 1.372E+01	-5.883E-01	-6.985E-01	 9.425E+01	-8.497E+01	 6.110E+02	 1.452E+03	 1.897E+03	 3.653E-01	 2.180E+03	 9.774E+02	 1.281E+02	 2.070E+01	 1.804E+02	-4.871E+00	-2.048E+03	 1.008E+03	 1.363E+04	 8.840E+02	 1.517E+03	 8.377E+00	 1.328E+01
  73.200	 1.347E+01	-9.644E-02	-8.631E-01	 9.214E+01	-7.908E+01	 6.139E+02	 1.350E+03	 1.861E+03	 3.344E+00	 2.121E+03	 8.865E+02	 1.229E+02	 2.069E+01	 1.813E+02	-8.413E+00	-2.047E+03	 1.166E+03	 1.360E+04	 9.218E+02	 1.517E+03	 8.377E+00	 1.327E+01
  73.250	 1.366E+01	-7.411E-02	-1.066E+00	 9.304E+01	-7.073E+01	 6.161E+02	 1.204E+03	 1.872E+03	 7.441E+00	 2.098E+03	 7.422E+02	 1.367E+02	 2.068E+01	 1.742E+02	-9.068E+00	-2.041E+03	 1.240E+03	 1.331E+04	 8.420E+02	 1.516E+03	 8.377E+00	 1.327E+01
  73.300	 1.355E+01	-4.485E-02	-9.370E-01	 8.693E+01	-6.204E+01	 6.181E+02	 1.044E+03	 1.798E+03	 7.641E+00	 1.990E+03	 6.041E+02	 1.298E+02	 2.067E+01	 1.623E+02	-7.240E+00	-2.039E+03	 1.236E+03	 1.290E+04	 6.939E+02	 1.515E+03	 8.377E+00	 1.326E+01
  73.350	 1.352E+01	 1.240E-01	-7.942E-01	 9.175E+01	-5.604E+01	 6.202E+02	 9.026E+02	 1.833E+03	 1.218E+01	 1.991E+03	 4.589E+02	 1.377E+02	 2.066E+01	 1.564E+02	-6.235E+00	-2.033E+03	 1.229E+03	 1.264E+04	 5.291E+02	 1.515E+03	 8.377E+00	 1.324E+01
  73.400	 1.371E+01	 1.154E-01	-6.593E-01	 7.962E+01	-3.945E+01	 6.214E+02	 7.078E+02	 1.764E+03	 1.145E+01	 1.879E+03	 2.851E+02	 1.260E+02	 2.066E+01	 1.609E+02	-5.478E+00	-2.026E+03	 1.217E+03	 1.264E+04	 3.191E+02	 1.514E+03	 8.377E+00	 1.324E+01
  73.450	 1.328E+01	-3.372E-01	-5.524E-01	 8.610E+01	-3.494E+01	 6.231E+02	 5.450E+02	 1.797E+03	 1.445E+01	 1.874E+03	 1.188E+02	 1.330E+02	 2.066E+01	 1.657E+02	-5.042E+00	-2.019E+03	 1.207E+03	 1.267E+04	 1.761E+02	 1.514E+03	 8.377E+00	 1.324E+01
  73.500	 1.343E+01	-4.623E-01	-4.392E-01	 8.553E+01	-2.430E+01	 6.237E+02	 3.773E+02	 1.810E+03	 1.731E+01	 1.848E+03	-4.718E+01	 1.358E+02	 2.066E+01	 1.693E+02	-7.252E+00	-2.023E+03	 1.238E+03	 1.265E+04	 2.364E+02	 1.514E+03	 8.377E+00	 1.324E+01
  73.550	 1.349E+01	-1.510E-01	-4.214E-01	 8.873E+01	-1.683E+01	 6.237E+02	 2.046E+02	 1.827E+03	 1.932E+01	 1.825E+03	-2.202E+02	 1.381E+02	 2.066E+01	 1.666E+02	-6.281E+00	-2.027E+03	 1.194E+03	 1.248E+04	 2.094E+02	 1.515E+03	 8.377E+00	 1.327E+01
  73.600	 1.316E+01	-3.556E-01	-6.633E-01	 9.621E+01	-1.443E+01	 6.234E+02	 5.924E+01	 1.820E+03	 2.398E+01	 1.785E+03	-3.600E+02	 1.441E+02	 2.066E+01	 1.621E+02	-6.622E+00	-2.014E+03	 1.150E+03	 1.224E+04	 6.863E+01	 1.515E+03	 8.377E+00	 1.326E+01
  73.650	 1.324E+01	-5.027E-01	-2.224E-01	 8.203E+01	 3.798E+00	 6.224E+02	-1.350E+02	 1.702E+03	 2.252E+01	 1.625E+03	-5.224E+02	 1.357E+02	 2.066E+01	 1.554E+02	-4.498E+00	-2.017E+03	 1.036E+03	 1.193E+04	 1.496E+02	 1.514E+03	 8.377E+00	 1.328E+01
  73.700	 1.336E+01	-4.149E-01	-4.485E-01	 7.419E+01	 1.023E+01	 6.210E+02	-3.264E+02	 1.530E+03	 1.897E+01	 1.414E+03	-6.694E+02	 1.265E+02	 2.066E+01	 1.469E+02	-2.853E-01	-2.024E+03	 8.705E+02	 1.158E+04	 1.849E+02	 1.515E+03	 8.377E+00	 1.329E+01
  73.750	 1.321E+01	-6.808E-01	-4.156E-01	 7.464E+01	 1.697E+01	 6.193E+02	-4.823E+02	 1.452E+03	 2.412E+01	 1.302E+03	-8.032E+02	 1.309E+02	 2.066E+01	 1.399E+02	 1.879E+00	-2.013E+03	 7.449E+02	 1.126E+04	 1.655E+02	 1.515E+03	 8.377E+00	 1.329E+01
  73.800	 1.330E+01	-6.687E-01	-2.947E-01	 6.151E+01	 3.038E+01	 6.173E+02	-6.528E+02	 1.290E+03	 2.298E+01	 1.105E+03	-9.323E+02	 1.225E+02	 2.066E+01	 1.319E+02	 3.423E+00	-2.018E+03	 6.493E+02	 1.096E+04	 3.259E+02	 1.515E+03	 8.377E+00	 1.331E+01
  73.850	 1.354E+01	-3.307E-01	-2.893E-01	 6.367E+01	 3.103E+01	 6.151E+02	-7.839E+02	 1.180E+03	 2.362E+01	 9.679E+02	-1.034E+03	 1.266E+02	 2.065E+01	 1.265E+02	 2.958E+00	-2.022E+03	 6.195E+02	 1.078E+04	 4.854E+02	 1.513E+03	 8.377E+00	 1.329E+01
  73.900	 1.311E+01	-1.131E-01	-2.556E-01	 5.859E+01	 3.918E+01	 6.133E+02	-9.077E+02	 1.100E+03	 2.362E+01	 8.619E+02	-1.136E+03	 1.176E+02	 2.064E+01	 1.307E+02	 4.711E-01	-2.022E+03	 6.420E+02	 1.083E+04	 4.631E+02	 1.513E+03	 8.377E+00	 1.328E+01
  73.950	 1.314E+01	-5.976E-02	-5.449E-01	 6.188E+01	 4.396E+01	 6.122E+02	-1.015E+03	 1.098E+03	 2.340E+01	 8.350E+02	-1.240E+03	 1.370E+02	 2.065E+01	 1.345E+02	-4.748E-01	-2.025E+03	 6.326E+02	 1.092E+04	 5.996E+02	 1.513E+03	 8.377E+00	 1.330E+01
  74.000	 1.312E+01	 1.725E-01	-4.430E-01	 4.856E+01	 5.611E+01	 6.089E+02	-1.089E+03	 1.045E+03	 1.714E+01	 7.662E+02	-1.301E+03	 1.093E+02	 2.066E+01	 1.300E+02	 1.882E+00	-2.032E+03	 5.554E+02	 1.091E+04	 7.219E+02	 1.514E+03	 8.377E+00	 1.333E+01
  74.050	 1.307E+01	-6.213E-02	-4.802E-01	 5.546E+01	 5.785E+01	 6.062E+02	-1.174E+03	 1.088E+03	 1.870E+01	 7.871E+02	-1.394E+03	 1.206E+02	 2.067E+01	 1.423E+02	 4.603E+00	-2.031E+03	 4.773E+02	 1.126E+04	 7.017E+02	 1.515E+03	 8.377E+00	 1.336E+01
  74.100	 1.299E+01	-6.471E-02	-3.364E-02	 6.781E+01	 5.488E+01	 6.014E+02	-1.200E+03	 1.197E+03	 2.302E+01	 8.866E+02	-1.444E+03	 1.259E+02	 2.067E+01	 1.461E+02	 5.415E+00	-2.031E+03	 4.577E+02	 1.150E+04	 5.685E+02	 1.515E+03	 8.377E+00	 1.338E+01
  74.150	 1.247E+01	-2.053E-01	-3.585E-01	 6.239E+01	 5.931E+01	 5.972E+02	-1.273E+03	 1.154E+03	 1.932E+01	 8.285E+02	-1.505E+03	 1.218E+02	 2.065E+01	 1.578E+02	 3.941E+00	-2.036E+03	 5.059E+02	 1.187E+04	 6.013E+02	 1.514E+03	 8.377E+00	 1.336E+01
  74.200	 1.296E+01	 5.537E-01	-6.625E-01	 6.650E+01	 5.894E+01	 5.924E+02	-1.267E+03	 1.217E+03	 2.269E+01	 8.928E+02	-1.513E+03	 1.173E+02	 2.063E+01	 1.596E+02	-1.740E-02	-2.035E+03	 6.119E+02	 1.200E+04	 4.612E+02	 1.512E+03	 8.377E+00	 1.329E+01
  74.250	 1.299E+01	-3.389E-02	-3.631E-01	 6.326E+01	 6.118E+01	 5.878E+02	-1.278E+03	 1.238E+03	 1.696E+01	 9.116E+02	-1.528E+03	 1.153E+02	 2.061E+01	 1.568E+02	-1.449E+00	-2.033E+03	 6.575E+02	 1.197E+04	 4.281E+02	 1.511E+03	 8.377E+00	 1.328E+01
  74.300	 1.300E+01	-4.101E-01	-4.463E-01	 7.486E+01	 5.824E+01	 5.834E+02	-1.235E+03	 1.381E+03	 2.187E+01	 1.061E+03	-1.518E+03	 1.317E+02	 2.059E+01	 1.581E+02	-1.264E+00	-2.031E+03	 6.432E+02	 1.197E+04	 3.074E+02	 1.509E+03	 8.377E+00	 1.324E+01
  74.350	 1.275E+01	-3.801E-01	-6.964E-01	 6.721E+01	 6.031E+01	 5.776E+02	-1.187E+03	 1.376E+03	 1.775E+01	 1.068E+03	-1.470E+03	 1.142E+02	 2.057E+01	 1.489E+02	 2.188E+00	-2.028E+03	 5.445E+02	 1.176E+04	 2.388E+02	 1.508E+03	 8.377E+00	 1.321E+01
  74.400	 1.291E+01	 2.778E-02	-2.712E-01	 8.177E+01	 5.049E+01	 5.722E+02	-1.116E+03	 1.491E+03	 2.310E+01	 1.197E+03	-1.427E+03	 1.330E+02	 2.058E+01	 1.488E+02	 5.204E+00	-2.021E+03	 4.504E+02	 1.174E+04	 8.755E+01	 1.508E+03	 8.377E+00	 1.320E+01
  74.450	 1.303E+01	-2.016E-01	-2.709E-01	 6.727E+01	 5.461E+01	 5.669E+02	-1.079E+03	 1.396E+03	 1.800E+01	 1.113E+03	-1.370E+03	 1.149E+02	 2.058E+01	 1.483E+02	 6.994E+00	-2.026E+03	 3.975E+02	 1.175E+04	 1.284E+02	 1.508E+03	 8.377E+00	 1.321E+01
  74.500	 1.307E+01	 4.033E-01	-5.962E-01	 7.451E+01	 4.920E+01	 5.620E+02	-9.912E+02	 1.469E+03	 2.416E+01	 1.203E+03	-1.301E+03	 1.172E+02	 2.057E+01	 1.590E+02	 5.321E+00	-2.025E+03	 4.348E+02	 1.199E+04	 8.755E+01	 1.508E+03	 8.377E+00	 1.322E+01
  74.550	 1.289E+01	 4.026E-01	-4.671E-01	 6.383E+01	 4.908E+01	 5.571E+02	-9.335E+02	 1.392E+03	 2.027E+01	 1.142E+03	-1.227E+03	 1.181E+02	 2.057E+01	 1.614E+02	 1.502E+00	-2.032E+03	 5.228E+02	 1.204E+04	 1.245E+02	 1.507E+03	 8.377E+00	 1.320E+01
  74.600	 1.281E+01	 1.107E-01	-8.724E-01	 7.556E+01	 3.393E+01	 5.527E+02	-7.902E+02	 1.454E+03	 2.480E+01	 1.236E+03	-1.101E+03	 1.111E+02	 2.054E+01	 1.663E+02	-1.531E+00	-2.017E+03	 5.798E+02	 1.206E+04	 2.674E+01	 1.506E+03	 8.377E+00	 1.316E+01
  74.650	 1.300E+01	 3.089E-01	-9.679E-01	 6.106E+01	 3.741E+01	 5.479E+02	-7.049E+02	 1.413E+03	 1.814E+01	 1.216E+03	-1.007E+03	 9.770E+01	 2.052E+01	 1.568E+02	 5.766E-01	-2.023E+03	 5.117E+02	 1.171E+04	 6.389E+01	 1.504E+03	 8.377E+00	 1.312E+01
  74.700	 1.302E+01	-9.932E-03	-8.168E-01	 7.358E+01	 2.704E+01	 5.442E+02	-5.527E+02	 1.558E+03	 2.396E+01	 1.393E+03	-8.907E+02	 1.062E+02	 2.050E+01	 1.481E+02	 3.872E+00	-2.019E+03	 3.950E+02	 1.129E+04	 1.045E+02	 1.503E+03	 8.377E+00	 1.307E+01
  74.750	 1.292E+01	-8.722E-02	-1.202E+00	 7.359E+01	 2.184E+01	 5.408E+02	-4.271E+02	 1.628E+03	 1.990E+01	 1.489E+03	-7.843E+02	 1.032E+02	 2.050E+01	 1.316E+02	 9.735E+00	-2.020E+03	 2.274E+02	 1.066E+04	 2.599E+02	 1.502E+03	 8.377E+00	 1.307E+01
  74.800	 1.288E+01	-3.123E-01	-1.191E+00	 9.123E+01	 7.473E+00	 5.378E+02	-2.513E+02	 1.814E+03	 2.502E+01	 1.710E+03	-6.552E+02	 1.168E+02	 2.050E+01	 1.192E+02	 1.167E+01	-2.014E+03	 1.589E+02	 1.013E+04	 2.776E+02	 1.503E+03	 8.377E+00	 1.308E+01
  74.850	 1.300E+01	-5.061E-01	-1.149E+00	 8.682E+01	 3.166E+00	 5.351E+02	-9.595E+01	 1.857E+03	 2.055E+01	 1.787E+03	-5.138E+02	 1.053E+02	 2.051E+01	 1.110E+02	 9.515E+00	-2.018E+03	 2.125E+02	 9.794E+03	 3.560E+02	 1.503E+03	 8.377E+00	 1.308E+01
  74.900	 1.330E+01	-1.300E-01	-8.347E-01	 8.579E+01	-6.432E-02	 5.319E+02	 2.958E+01	 1.919E+03	 1.987E+01	 1.876E+03	-4.065E+02	 1.154E+02	 2.052E+01	 1.127E+02	 6.359E+00	-2.024E+03	 3.236E+02	 9.766E+03	 5.305E+02	 1.504E+03	 8.377E+00	 1.311E+01
  74.950	 1.305E+01	-3.219E-01	-1.186E+00	 8.720E+01	-6.579E+00	 5.295E+02	 1.563E+02	 1.974E+03	 1.842E+01	 1.958E+03	-2.974E+02	 1.341E+02	 2.054E+01	 1.195E+02	 2.319E+00	-2.030E+03	 4.620E+02	 9.922E+03	 6.007E+02	 1.506E+03	 8.377E+00	 1.316E+01
  75.000	 1.326E+01	-1.006E-01	-1.432E+00	 9.212E+01	-1.808E+01	 5.279E+02	 2.985E+02	 1.986E+03	 1.870E+01	 2.001E+03	-1.614E+02	 1.433E+02	 2.054E+01	 1.272E+02	 2.100E-01	-2.029E+03	 5.528E+02	 1.014E+04	 5.727E+02	 1.506E+03	 8.377E+00	 1.316E+01
  75.050	 1.339E+01	-5.790E-01	-1.118E+00	 9.414E+01	-2.936E+01	 5.268E+02	 4.557E+02	 1.965E+03	 1.945E+01	 2.017E+03	-4.252E+00	 1.331E+02	 2.054E+01	 1.308E+02	 2.254E+00	-2.039E+03	 5.532E+02	 1.029E+04	 7.312E+02	 1.505E+03	 8.377E+00	 1.318E+01
  75.100	 1.384E+01	-8.300E-01	-1.032E+00	 7.839E+01	-3.316E+01	 5.274E+02	 5.644E+02	 1.795E+03	 9.101E+00	 1.876E+03	 1.422E+02	 1.227E+02	 2.051E+01	 1.292E+02	 2.699E+00	-2.026E+03	 5.907E+02	 1.037E+04	 5.255E+02	 1.504E+03	 8.377E+00	 1.312E+01
  75.150	 1.380E+01	-5.090E-01	-5.436E-01	 9.210E+01	-5.112E+01	 5.273E+02	 7.719E+02	 1.836E+03	 1.395E+01	 1.963E+03	 3.371E+02	 1.174E+02	 2.049E+01	 1.350E+02	 1.428E+00	-2.046E+03	 6.780E+02	 1.062E+04	 6.913E+02	 1.502E+03	 8.377E+00	 1.305E+01
  75.200	 1.359E+01	-2.210E-01	-6.010E-01	 8.486E+01	-5.667E+01	 5.289E+02	 8.889E+02	 1.722E+03	 8.759E+00	 1.878E+03	 4.796E+02	 1.172E+02	 2.046E+01	 1.383E+02	-1.324E+00	-2.044E+03	 8.119E+02	 1.086E+04	 6.015E+02	 1.497E+03	 8.367E+00	 1.297E+01
  75.250	 1.372E+01	 2.032E-01	-1.436E+00	 7.843E+01	-5.765E+01	 5.305E+02	 9.850E+02	 1.659E+03	 6.730E+00	 1.838E+03	 5.885E+02	 1.280E+02	 2.043E+01	 1.456E+02	-5.528E+00	-2.038E+03	 9.765E+02	 1.120E+04	 4.698E+02	 1.492E+03	 8.347E+00	 1.294E+01
  75.300	 1.330E+01	 8.082E-02	-1.251E+00	 7.631E+01	-6.369E+01	 5.328E+02	 1.106E+03	 1.606E+03	 4.489E+00	 1.812E+03	 7.198E+02	 1.150E+02	 2.041E+01	 1.572E+02	-7.047E+00	-2.041E+03	 1.069E+03	 1.164E+04	 3.920E+02	 1.489E+03	 8.337E+00	 1.288E+01
  75.350	 1.335E+01	 3.847E-02	-9.096E-01	 7.009E+01	-6.628E+01	 5.361E+02	 1.206E+03	 1.563E+03	-2.147E+00	 1.793E+03	 8.280E+02	 1.128E+02	 2.041E+01	 1.661E+02	-7.039E+00	-2.033E+03	 1.102E+03	 1.196E+04	 2.422E+02	 1.488E+03	 8.332E+00	 1.287E+01
  75.400	 1.328E+01	 2.262E-01	-4.424E-01	 6.936E+01	-7.170E+01	 5.398E+02	 1.324E+03	 1.558E+03	-4.961E+00	 1.814E+03	 9.427E+02	 1.064E+02	 2.042E+01	 1.673E+02	-5.026E+00	-2.029E+03	 1.068E+03	 1.205E+04	 2.191E+02	 1.491E+03	 8.344E+00	 1.289E+01
  75.450	 1.327E+01	 2.944E-01	-7.016E-01	 6.843E+01	-7.604E+01	 5.445E+02	 1.391E+03	 1.543E+03	-9.087E+00	 1.815E+03	 1.010E+03	 1.156E+02	 2.044E+01	 1.547E+02	-1.744E+00	-2.029E+03	 1.002E+03	 1.178E+04	 1.318E+02	 1.496E+03	 8.360E+00	 1.294E+01
  75.500	 1.311E+01	 6.329E-02	-9.269E-01	 6.803E+01	-8.113E+01	 5.487E+02	 1.451E+03	 1.520E+03	-1.043E+01	 1.806E+03	 1.074E+03	 1.156E+02	 2.046E+01	 1.482E+02	-1.557E+00	-2.026E+03	 1.003E+03	 1.159E+04	 9.066E+00	 1.500E+03	 8.377E+00	 1.296E+01
  75.550	 1.306E+01	 6.447E-02	-4.450E-01	 7.289E+01	-8.878E+01	 5.514E+02	 1.522E+03	 1.543E+03	-7.562E+00	 1.846E+03	 1.136E+03	 1.114E+02	 2.046E+01	 1.465E+02	-4.635E+00	-2.025E+03	 1.077E+03	 1.152E+04	 4.701E+01	 1.500E+03	 8.375E+00	 1.297E+01
  75.600	 1.257E+01	-5.697E-01	-2.799E-01	 6.848E+01	-8.862E+01	 5.556E+02	 1.562E+03	 1.532E+03	-9.099E+00	 1.843E+03	 1.179E+03	 9.831E+01	 2.044E+01	 1.464E+02	-7.388E+00	-2.024E+03	 1.141E+03	 1.152E+04	 5.353E+01	 1.494E+03	 8.356E+00	 1.293E+01
  75.650	 1.209E+01	-3.512E-01	-2.053E-01	 6.564E+01	-8.687E+01	 5.593E+02	 1.577E+03	 1.540E+03	-1.132E+01	 1.853E+03	 1.195E+03	 9.448E+01	 2.040E+01	 1.512E+02	-8.126E+00	-2.020E+03	 1.140E+03	 1.158E+04	 5.085E+01	 1.488E+03	 8.331E+00	 1.287E+01
  75.700	 1.193E+01	-2.311E-01	 1.248E-01	 7.897E+01	-9.477E+01	 5.631E+02	 1.620E+03	 1.637E+03	-7.473E+00	 1.955E+03	 1.218E+03	 1.041E+02	 2.038E+01	 1.503E+02	-5.623E+00	-2.027E+03	 1.036E+03	 1.145E+04	 2.102E+02	 1.481E+03	 8.305E+00	 1.278E+01
[...]
 596.100	 9.955E+00	 5.639E-01	-1.284E-01	 9.923E+01	 6.019E+01	 5.789E+02	-1.038E+03	 2.356E+03	 4.374E+01	 2.126E+03	-1.453E+03	 1.968E+02	 2.038E+01	 2.528E+02	-3.877E+00	-2.026E+03	 8.842E+02	 1.956E+04	-1.880E+02	 1.481E+03	 8.307E+00	 1.058E+01
 596.150	 9.869E+00	 4.352E-01	-3.123E-01	 1.038E+02	 5.401E+01	 5.733E+02	-1.020E+03	 2.329E+03	 4.423E+01	 2.101E+03	-1.431E+03	 1.990E+02	 2.039E+01	 2.445E+02	-2.106E+00	-2.014E+03	 8.153E+02	 1.936E+04	-1.379E+02	 1.484E+03	 8.317E+00	 1.060E+01
 596.200	 1.008E+01	 7.296E-01	 2.134E-01	 9.414E+01	 5.629E+01	 5.667E+02	-1.019E+03	 2.266E+03	 4.126E+01	 2.039E+03	-1.420E+03	 1.952E+02	 2.041E+01	 2.288E+02	 6.399E-01	-2.011E+03	 7.091E+02	 1.898E+04	-8.003E-01	 1.487E+03	 8.326E+00	 1.063E+01
 596.250	 1.015E+01	 6.384E-01	 2.960E-01	 9.849E+01	 5.612E+01	 5.617E+02	-9.864E+02	 2.322E+03	 4.737E+01	 2.100E+03	-1.399E+03	 2.018E+02	 2.042E+01	 2.278E+02	 1.451E+00	-2.011E+03	 6.365E+02	 1.891E+04	 5.624E+01	 1.491E+03	 8.341E+00	 1.066E+01
 596.300	 1.024E+01	 6.022E-01	 2.029E-01	 9.049E+01	 5.743E+01	 5.561E+02	-9.752E+02	 2.271E+03	 4.460E+01	 2.050E+03	-1.380E+03	 2.026E+02	 2.044E+01	 2.284E+02	 3.027E+00	-2.015E+03	 5.612E+02	 1.892E+04	 1.882E+02	 1.494E+03	 8.352E+00	 1.070E+01
 596.350	 1.036E+01	 6.442E-01	 2.658E-01	 9.787E+01	 5.119E+01	 5.499E+02	-9.366E+02	 2.329E+03	 4.781E+01	 2.115E+03	-1.353E+03	 2.069E+02	 2.044E+01	 2.403E+02	 3.330E+00	-2.014E+03	 5.242E+02	 1.918E+04	 1.965E+02	 1.495E+03	 8.357E+00	 1.071E+01
 596.400	 1.033E+01	 7.659E-01	 1.666E-01	 9.453E+01	 5.132E+01	 5.445E+02	-9.051E+02	 2.355E+03	 4.590E+01	 2.146E+03	-1.326E+03	 2.072E+02	 2.043E+01	 2.471E+02	 2.892E+00	-2.023E+03	 5.129E+02	 1.929E+04	 3.055E+02	 1.491E+03	 8.343E+00	 1.069E+01
 596.450	 1.038E+01	 2.017E-01	 4.468E-01	 9.848E+01	 4.743E+01	 5.392E+02	-8.173E+02	 2.443E+03	 4.878E+01	 2.249E+03	-1.255E+03	 1.915E+02	 2.042E+01	 2.410E+02	 2.727E+00	-2.020E+03	 5.033E+02	 1.908E+04	 1.576E+02	 1.490E+03	 8.338E+00	 1.067E+01
 596.500	 1.042E+01	-1.475E-01	 3.013E-01	 1.120E+02	 3.870E+01	 5.340E+02	-7.416E+02	 2.572E+03	 5.101E+01	 2.391E+03	-1.204E+03	 2.095E+02	 2.041E+01	 2.326E+02	 3.925E+00	-2.022E+03	 4.730E+02	 1.873E+04	 2.010E+02	 1.488E+03	 8.333E+00	 1.065E+01
 596.550	 1.052E+01	-1.119E-02	 3.074E-01	 9.796E+01	 4.103E+01	 5.295E+02	-6.872E+02	 2.530E+03	 4.314E+01	 2.359E+03	-1.143E+03	 2.008E+02	 2.042E+01	 2.125E+02	 5.979E+00	-2.033E+03	 4.392E+02	 1.814E+04	 3.634E+02	 1.490E+03	 8.338E+00	 1.066E+01
 596.600	 1.043E+01	-4.063E-01	 1.961E-01	 1.082E+02	 3.249E+01	 5.251E+02	-6.026E+02	 2.600E+03	 4.473E+01	 2.444E+03	-1.074E+03	 2.129E+02	 2.043E+01	 2.001E+02	 7.181E+00	-2.031E+03	 4.474E+02	 1.777E+04	 3.481E+02	 1.492E+03	 8.346E+00	 1.067E+01
 596.650	 1.039E+01	-5.132E-01	 5.289E-01	 1.104E+02	 3.013E+01	 5.208E+02	-5.048E+02	 2.680E+03	 4.567E+01	 2.540E+03	-9.937E+02	 2.165E+02	 2.044E+01	 2.013E+02	 5.399E+00	-2.036E+03	 5.482E+02	 1.780E+04	 3.218E+02	 1.495E+03	 8.357E+00	 1.070E+01
 596.700	 9.922E+00	-3.567E-01	 2.464E-01	 1.080E+02	 2.100E+01	 5.174E+02	-4.156E+02	 2.602E+03	 4.268E+01	 2.479E+03	-8.937E+02	 2.109E+02	 2.046E+01	 2.124E+02	 1.587E+00	-2.034E+03	 7.174E+02	 1.816E+04	 3.138E+02	 1.500E+03	 8.375E+00	 1.075E+01
 596.750	 9.806E+00	-6.610E-01	 8.290E-02	 1.030E+02	 1.542E+01	 5.141E+02	-3.166E+02	 2.533E+03	 4.050E+01	 2.429E+03	-7.844E+02	 1.985E+02	 2.046E+01	 2.318E+02	-2.175E+00	-2.043E+03	 9.016E+02	 1.876E+04	 2.782E+02	 1.500E+03	 8.377E+00	 1.077E+01
 596.800	 1.000E+01	-7.966E-01	-3.495E-01	 1.011E+02	 9.185E+00	 5.119E+02	-2.147E+02	 2.470E+03	 4.014E+01	 2.386E+03	-6.722E+02	 2.014E+02	 2.046E+01	 2.464E+02	-6.268E+00	-2.047E+03	 1.085E+03	 1.924E+04	 2.471E+02	 1.499E+03	 8.373E+00	 1.076E+01
 596.850	 9.982E+00	-9.395E-01	-2.464E-01	 9.323E+01	 4.975E+00	 5.113E+02	-1.250E+02	 2.354E+03	 3.443E+01	 2.289E+03	-5.624E+02	 2.080E+02	 2.045E+01	 2.492E+02	-8.568E+00	-2.043E+03	 1.208E+03	 1.939E+04	 1.230E+02	 1.495E+03	 8.357E+00	 1.076E+01
 596.900	 9.853E+00	-4.864E-01	-5.717E-01	 8.695E+01	-1.574E+00	 5.112E+02	 3.406E+00	 2.268E+03	 2.980E+01	 2.229E+03	-4.186E+02	 1.937E+02	 2.044E+01	 2.455E+02	-9.723E+00	-2.030E+03	 1.271E+03	 1.930E+04	-1.312E+02	 1.494E+03	 8.353E+00	 1.072E+01
 596.950	 9.905E+00	-6.395E-01	-7.060E-01	 8.542E+01	-9.306E+00	 5.125E+02	 1.491E+02	 2.212E+03	 2.671E+01	 2.201E+03	-2.642E+02	 1.814E+02	 2.044E+01	 2.384E+02	-7.470E+00	-2.035E+03	 1.234E+03	 1.909E+04	-2.564E+01	 1.494E+03	 8.356E+00	 1.070E+01
 597.000	 9.746E+00	-1.085E+00	-5.448E-01	 9.187E+01	-2.023E+01	 5.134E+02	 2.935E+02	 2.236E+03	 2.434E+01	 2.252E+03	-1.262E+02	 1.876E+02	 2.043E+01	 2.365E+02	-6.235E+00	-2.025E+03	 1.191E+03	 1.895E+04	-2.399E+02	 1.493E+03	 8.349E+00	 1.069E+01
 597.050	 9.717E+00	-1.315E+00	-5.036E-01	 9.462E+01	-2.635E+01	 5.159E+02	 4.304E+02	 2.261E+03	 2.222E+01	 2.302E+03	 2.219E+00	 2.050E+02	 2.045E+01	 2.352E+02	-4.806E+00	-2.021E+03	 1.123E+03	 1.882E+04	-3.246E+02	 1.496E+03	 8.361E+00	 1.072E+01
 597.100	 9.878E+00	-1.274E+00	-2.614E-01	 9.535E+01	-3.710E+01	 5.182E+02	 5.967E+02	 2.260E+03	 1.910E+01	 2.331E+03	 1.639E+02	 1.898E+02	 2.047E+01	 2.382E+02	-4.755E+00	-2.014E+03	 1.060E+03	 1.876E+04	-3.702E+02	 1.500E+03	 8.377E+00	 1.077E+01
 597.150	 9.956E+00	-1.253E+00	-5.319E-01	 8.988E+01	-4.001E+01	 5.219E+02	 7.375E+02	 2.280E+03	 1.285E+01	 2.378E+03	 2.971E+02	 1.860E+02	 2.049E+01	 2.337E+02	-3.534E+00	-2.015E+03	 9.590E+02	 1.851E+04	-3.335E+02	 1.502E+03	 8.377E+00	 1.080E+01
 597.200	 1.018E+01	-1.219E+00	-8.497E-02	 9.878E+01	-5.167E+01	 5.257E+02	 8.888E+02	 2.345E+03	 1.020E+01	 2.470E+03	 4.317E+02	 1.922E+02	 2.050E+01	 2.266E+02	-1.314E+00	-2.012E+03	 8.254E+02	 1.814E+04	-2.556E+02	 1.503E+03	 8.377E+00	 1.085E+01
 597.250	 1.000E+01	-1.278E+00	 5.105E-02	 9.372E+01	-5.588E+01	 5.295E+02	 1.021E+03	 2.348E+03	 3.764E+00	 2.499E+03	 5.588E+02	 1.842E+02	 2.051E+01	 2.134E+02	 1.390E+00	-2.008E+03	 6.756E+02	 1.762E+04	-2.189E+02	 1.504E+03	 8.377E+00	 1.089E+01
 597.300	 1.029E+01	-1.466E+00	-5.735E-01	 1.037E+02	-6.695E+01	 5.323E+02	 1.173E+03	 2.434E+03	 4.245E+00	 2.611E+03	 6.926E+02	 1.904E+02	 2.050E+01	 2.045E+02	 3.851E+00	-2.009E+03	 5.348E+02	 1.721E+04	-1.656E+01	 1.503E+03	 8.377E+00	 1.088E+01
 597.350	 1.040E+01	-1.481E+00	-4.003E-01	 1.020E+02	-7.144E+01	 5.359E+02	 1.293E+03	 2.439E+03	-4.517E-01	 2.639E+03	 8.109E+02	 1.816E+02	 2.048E+01	 1.994E+02	 6.837E+00	-2.017E+03	 4.008E+02	 1.694E+04	 5.426E+01	 1.502E+03	 8.377E+00	 1.084E+01
 597.400	 1.051E+01	-1.446E+00	-3.063E-01	 1.116E+02	-8.244E+01	 5.383E+02	 1.432E+03	 2.504E+03	-6.732E-01	 2.728E+03	 9.392E+02	 1.850E+02	 2.046E+01	 2.045E+02	 6.598E+00	-2.026E+03	 3.494E+02	 1.691E+04	 1.676E+02	 1.498E+03	 8.370E+00	 1.077E+01
 597.450	 9.933E+00	-1.162E+00	-3.527E-01	 1.062E+02	-8.563E+01	 5.418E+02	 1.524E+03	 2.453E+03	-7.498E+00	 2.694E+03	 1.041E+03	 1.759E+02	 2.044E+01	 2.038E+02	 6.953E+00	-2.028E+03	 3.068E+02	 1.679E+04	 2.333E+02	 1.495E+03	 8.358E+00	 1.072E+01
 597.500	 9.634E+00	-1.093E+00	-5.388E-01	 9.913E+01	-8.445E+01	 5.455E+02	 1.595E+03	 2.401E+03	-1.111E+01	 2.656E+03	 1.121E+03	 1.791E+02	 2.044E+01	 2.041E+02	 6.544E+00	-2.027E+03	 2.949E+02	 1.667E+04	 1.492E+02	 1.495E+03	 8.358E+00	 1.072E+01
 597.550	 9.476E+00	-6.078E-01	-4.321E-01	 9.587E+01	-8.706E+01	 5.490E+02	 1.645E+03	 2.331E+03	-1.473E+01	 2.596E+03	 1.183E+03	 1.823E+02	 2.044E+01	 2.047E+02	 6.882E+00	-2.029E+03	 2.870E+02	 1.655E+04	 7.849E+01	 1.495E+03	 8.359E+00	 1.072E+01
 597.600	 9.313E+00	-1.162E-01	-7.911E-03	 1.012E+02	-9.184E+01	 5.540E+02	 1.711E+03	 2.337E+03	-1.278E+01	 2.615E+03	 1.245E+03	 1.772E+02	 2.046E+01	 1.979E+02	 8.160E+00	-2.040E+03	 2.834E+02	 1.629E+04	 1.715E+02	 1.500E+03	 8.375E+00	 1.075E+01
 597.650	 9.180E+00	 2.206E-01	 9.544E-02	 1.062E+02	-9.636E+01	 5.590E+02	 1.732E+03	 2.330E+03	-1.144E+01	 2.613E+03	 1.264E+03	 1.928E+02	 2.049E+01	 1.938E+02	 7.858E+00	-2.042E+03	 3.330E+02	 1.610E+04	 1.700E+02	 1.501E+03	 8.377E+00	 1.082E+01
 597.700	 9.543E+00	 1.609E-01	-1.976E-01	 9.436E+01	-9.190E+01	 5.642E+02	 1.721E+03	 2.240E+03	-1.472E+01	 2.525E+03	 1.267E+03	 1.782E+02	 2.051E+01	 1.970E+02	 5.538E+00	-2.043E+03	 4.411E+02	 1.611E+04	 7.243E+01	 1.503E+03	 8.377E+00	 1.088E+01
 597.750	 9.843E+00	 2.731E-01	-3.208E-01	 9.799E+01	-9.249E+01	 5.697E+02	 1.687E+03	 2.242E+03	-1.224E+01	 2.521E+03	 1.231E+03	 1.983E+02	 2.052E+01	 2.006E+02	 2.791E+00	-2.040E+03	 5.723E+02	 1.617E+04	-3.738E+01	 1.504E+03	 8.377E+00	 1.092E+01
 597.800	 9.655E+00	 1.450E-01	-3.326E-01	 9.360E+01	-9.101E+01	 5.745E+02	 1.672E+03	 2.196E+03	-1.082E+01	 2.473E+03	 1.225E+03	 1.732E+02	 2.052E+01	 2.062E+02	-1.478E+00	-2.044E+03	 7.290E+02	 1.631E+04	 3.051E+01	 1.504E+03	 8.377E+00	 1.093E+01
 597.850	 9.699E+00	 3.635E-01	-4.671E-01	 9.899E+01	-9.069E+01	 5.797E+02	 1.594E+03	 2.197E+03	-7.335E+00	 2.459E+03	 1.148E+03	 1.929E+02	 2.052E+01	 2.081E+02	-3.332E+00	-2.038E+03	 8.207E+02	 1.636E+04	-1.870E+02	 1.504E+03	 8.377E+00	 1.093E+01
 597.900	 9.824E+00	 5.823E-01	-4.802E-01	 9.412E+01	-8.445E+01	 5.833E+02	 1.507E+03	 2.153E+03	-5.599E+00	 2.399E+03	 1.074E+03	 1.915E+02	 2.049E+01	 2.127E+02	-5.537E+00	-2.032E+03	 8.809E+02	 1.645E+04	-2.771E+02	 1.502E+03	 8.377E+00	 1.087E+01
 597.950	 9.943E+00	 5.397E-01	-4.245E-01	 9.751E+01	-8.119E+01	 5.867E+02	 1.421E+03	 2.145E+03	 1.049E+00	 2.374E+03	 9.936E+02	 1.874E+02	 2.047E+01	 2.114E+02	-3.939E+00	-2.031E+03	 8.323E+02	 1.641E+04	-3.783E+02	 1.501E+03	 8.377E+00	 1.081E+01
 598.000	 1.010E+01	 4.192E-01	 1.730E-01	 9.918E+01	-7.691E+01	 5.912E+02	 1.297E+03	 2.110E+03	 4.612E+00	 2.316E+03	 8.787E+02	 1.926E+02	 2.047E+01	 2.109E+02	-1.279E+00	-2.022E+03	 7.273E+02	 1.636E+04	-5.188E+02	 1.500E+03	 8.377E+00	 1.080E+01
 598.050	 1.020E+01	 1.783E-01	 8.614E-01	 9.008E+01	-6.874E+01	 5.949E+02	 1.154E+03	 2.007E+03	 4.452E+00	 2.187E+03	 7.577E+02	 1.770E+02	 2.047E+01	 2.081E+02	 1.871E+00	-2.020E+03	 5.856E+02	 1.622E+04	-5.093E+02	 1.500E+03	 8.377E+00	 1.080E+01
 598.100	 9.775E+00	 3.749E-01	 3.047E-01	 8.655E+01	-5.636E+01	 5.981E+02	 9.953E+02	 2.006E+03	 7.545E+00	 2.157E+03	 6.020E+02	 1.795E+02	 2.047E+01	 2.003E+02	 4.320E+00	-2.012E+03	 4.487E+02	 1.596E+04	-5.487E+02	 1.500E+03	 8.377E+00	 1.080E+01
 598.150	 9.862E+00	-3.802E-01	-3.161E-02	 9.238E+01	-5.108E+01	 6.019E+02	 8.551E+02	 2.043E+03	 1.312E+01	 2.167E+03	 4.571E+02	 1.889E+02	 2.048E+01	 1.935E+02	 5.002E+00	-2.007E+03	 3.445E+02	 1.574E+04	-5.783E+02	 1.501E+03	 8.377E+00	 1.080E+01
 598.200	 9.726E+00	 1.968E-02	-3.879E-01	 9.463E+01	-4.392E+01	 6.052E+02	 7.054E+02	 2.068E+03	 1.731E+01	 2.164E+03	 3.035E+02	 1.850E+02	 2.050E+01	 1.875E+02	 6.613E+00	-2.002E+03	 2.200E+02	 1.557E+04	-5.224E+02	 1.502E+03	 8.377E+00	 1.085E+01
 598.250	 9.923E+00	 3.599E-01	-5.218E-01	 9.089E+01	-3.581E+01	 6.086E+02	 5.210E+02	 2.012E+03	 1.751E+01	 2.074E+03	 1.314E+02	 1.836E+02	 2.051E+01	 1.896E+02	 8.881E+00	-2.006E+03	 8.447E+01	 1.560E+04	-4.082E+02	 1.503E+03	 8.377E+00	 1.089E+01
 598.300	 9.720E+00	 3.815E-01	-7.419E-01	 8.212E+01	-2.187E+01	 6.116E+02	 3.332E+02	 1.950E+03	 1.871E+01	 1.978E+03	-4.293E+01	 1.836E+02	 2.053E+01	 1.935E+02	 1.091E+01	-2.009E+03	-3.580E+01	 1.569E+04	-2.783E+02	 1.505E+03	 8.377E+00	 1.094E+01
 598.350	 9.459E+00	 3.448E-02	-8.495E-01	 8.491E+01	-1.700E+01	 6.139E+02	 1.751E+02	 1.923E+03	 2.310E+01	 1.921E+03	-1.935E+02	 1.863E+02	 2.053E+01	 1.917E+02	 1.357E+01	-2.011E+03	-1.419E+02	 1.569E+04	-2.240E+02	 1.505E+03	 8.377E+00	 1.096E+01
 598.400	 9.121E+00	-2.029E-02	-9.777E-01	 7.231E+01	-4.329E+00	 6.155E+02	 9.837E+00	 1.828E+03	 2.099E+01	 1.797E+03	-3.382E+02	 1.675E+02	 2.052E+01	 1.890E+02	 1.475E+01	-2.019E+03	-1.819E+02	 1.569E+04	 4.053E+00	 1.504E+03	 8.377E+00	 1.097E+01
 598.450	 9.467E+00	-5.264E-01	-9.710E-01	 7.625E+01	 3.038E+00	 6.161E+02	-1.395E+02	 1.826E+03	 2.719E+01	 1.767E+03	-4.829E+02	 1.739E+02	 2.050E+01	 1.900E+02	 1.368E+01	-2.028E+03	-1.309E+02	 1.580E+04	 1.416E+02	 1.503E+03	 8.377E+00	 1.092E+01
 598.500	 9.364E+00	-1.332E-01	-7.925E-01	 7.861E+01	 5.832E+00	 6.163E+02	-2.580E+02	 1.787E+03	 2.953E+01	 1.706E+03	-5.900E+02	 1.606E+02	 2.047E+01	 1.928E+02	 1.152E+01	-2.031E+03	-1.941E+01	 1.598E+04	 9.573E+01	 1.501E+03	 8.377E+00	 1.086E+01
 598.550	 9.051E+00	 8.341E-02	-8.883E-01	 8.030E+01	 1.565E+01	 6.162E+02	-3.595E+02	 1.835E+03	 3.330E+01	 1.735E+03	-6.965E+02	 1.617E+02	 2.045E+01	 1.992E+02	 7.703E+00	-2.036E+03	 1.454E+02	 1.624E+04	 3.619E+01	 1.497E+03	 8.365E+00	 1.078E+01
 598.600	 8.948E+00	 2.312E-02	-1.157E+00	 7.574E+01	 2.122E+01	 6.159E+02	-4.556E+02	 1.795E+03	 3.007E+01	 1.679E+03	-7.823E+02	 1.513E+02	 2.044E+01	 2.056E+02	 5.985E+00	-2.043E+03	 2.789E+02	 1.647E+04	 9.408E+01	 1.495E+03	 8.357E+00	 1.075E+01
 598.650	 9.287E+00	-5.343E-02	-1.216E+00	 8.475E+01	 2.657E+01	 6.143E+02	-5.414E+02	 1.911E+03	 3.542E+01	 1.776E+03	-8.887E+02	 1.633E+02	 2.045E+01	 2.072E+02	 5.593E+00	-2.044E+03	 3.889E+02	 1.657E+04	 4.028E+01	 1.497E+03	 8.365E+00	 1.076E+01
 598.700	 9.492E+00	-7.676E-02	-1.100E+00	 8.790E+01	 2.916E+01	 6.122E+02	-6.234E+02	 1.967E+03	 3.605E+01	 1.815E+03	-9.805E+02	 1.666E+02	 2.046E+01	 2.073E+02	 4.589E+00	-2.041E+03	 5.196E+02	 1.658E+04	-1.983E+01	 1.499E+03	 8.372E+00	 1.079E+01
 598.750	 9.508E+00	-2.056E-01	-9.758E-01	 9.262E+01	 3.571E+01	 6.098E+02	-7.055E+02	 2.094E+03	 3.757E+01	 1.924E+03	-1.086E+03	 1.774E+02	 2.048E+01	 2.029E+02	 3.194E+00	-2.041E+03	 6.711E+02	 1.647E+04	-9.957E+01	 1.502E+03	 8.377E+00	 1.082E+01
 598.800	 9.718E+00	 8.664E-02	-4.722E-01	 9.957E+01	 3.987E+01	 6.064E+02	-7.613E+02	 2.252E+03	 4.158E+01	 2.068E+03	-1.173E+03	 1.874E+02	 2.050E+01	 1.978E+02	-1.166E+00	-2.036E+03	 8.861E+02	 1.635E+04	-1.950E+02	 1.503E+03	 8.377E+00	 1.089E+01
 598.850	 9.562E+00	-2.173E-01	-6.375E-01	 1.110E+02	 3.922E+01	 6.020E+02	-8.084E+02	 2.397E+03	 4.612E+01	 2.201E+03	-1.248E+03	 1.933E+02	 2.051E+01	 1.982E+02	-5.357E+00	-2.026E+03	 1.093E+03	 1.639E+04	-3.112E+02	 1.503E+03	 8.377E+00	 1.093E+01
 598.900	 9.947E+00	-2.215E-02	-2.344E-01	 1.143E+02	 4.251E+01	 5.970E+02	-8.585E+02	 2.504E+03	 4.815E+01	 2.295E+03	-1.318E+03	 1.988E+02	 2.052E+01	 2.049E+02	-9.401E+00	-2.023E+03	 1.271E+03	 1.664E+04	-3.509E+02	 1.503E+03	 8.377E+00	 1.093E+01
 598.950	 9.694E+00	-2.112E-01	 3.538E-02	 1.228E+02	 4.362E+01	 5.909E+02	-8.759E+02	 2.646E+03	 5.333E+01	 2.433E+03	-1.360E+03	 2.095E+02	 2.050E+01	 2.168E+02	-1.175E+01	-2.021E+03	 1.375E+03	 1.702E+04	-4.531E+02	 1.502E+03	 8.377E+00	 1.089E+01
 599.000	 9.699E+00	-4.081E-01	 1.953E-01	 1.143E+02	 4.991E+01	 5.841E+02	-9.038E+02	 2.643E+03	 5.185E+01	 2.425E+03	-1.386E+03	 1.877E+02	 2.049E+01	 2.215E+02	-9.889E+00	-2.022E+03	 1.351E+03	 1.726E+04	-5.150E+02	 1.502E+03	 8.377E+00	 1.088E+01
 599.050	 9.656E+00	-6.490E-01	 3.578E-01	 1.139E+02	 5.361E+01	 5.780E+02	-9.373E+02	 2.675E+03	 5.279E+01	 2.450E+03	-1.424E+03	 1.997E+02	 2.048E+01	 2.258E+02	-7.518E+00	-2.020E+03	 1.278E+03	 1.740E+04	-4.901E+02	 1.501E+03	 8.377E+00	 1.086E+01
 599.100	 9.412E+00	-7.624E-01	-1.635E-01	 1.160E+02	 5.101E+01	 5.717E+02	-9.336E+02	 2.666E+03	 5.439E+01	 2.443E+03	-1.418E+03	 1.965E+02	 2.047E+01	 2.199E+02	-4.849E+00	-2.009E+03	 1.178E+03	 1.727E+04	-4.938E+02	 1.500E+03	 8.377E+00	 1.083E+01
 599.150	 9.214E+00	-6.198E-01	 1.721E-02	 1.111E+02	 5.235E+01	 5.657E+02	-9.288E+02	 2.630E+03	 5.199E+01	 2.408E+03	-1.406E+03	 1.974E+02	 2.047E+01	 2.072E+02	-2.941E+00	-2.006E+03	 1.086E+03	 1.696E+04	-3.946E+02	 1.500E+03	 8.377E+00	 1.082E+01
 599.200	 9.061E+00	-4.190E-01	-3.154E-01	 1.066E+02	 5.425E+01	 5.604E+02	-9.045E+02	 2.614E+03	 5.071E+01	 2.397E+03	-1.380E+03	 1.882E+02	 2.048E+01	 1.966E+02	-1.920E+00	-2.006E+03	 1.013E+03	 1.672E+04	-3.290E+02	 1.501E+03	 8.377E+00	 1.085E+01
 599.250	 9.344E+00	-7.566E-01	-4.575E-01	 1.061E+02	 5.198E+01	 5.546E+02	-8.934E+02	 2.576E+03	 5.014E+01	 2.360E+03	-1.364E+03	 2.005E+02	 2.050E+01	 1.942E+02	-1.136E+00	-2.009E+03	 9.511E+02	 1.673E+04	-1.374E+02	 1.503E+03	 8.377E+00	 1.090E+01
 599.300	 9.178E+00	-1.349E+00	-7.421E-01	 1.154E+02	 4.562E+01	 5.498E+02	-8.442E+02	 2.609E+03	 5.333E+01	 2.401E+03	-1.325E+03	 2.082E+02	 2.053E+01	 2.011E+02	 9.770E-04	-2.009E+03	 8.933E+02	 1.701E+04	-4.771E+01	 1.504E+03	 8.377E+00	 1.096E+01
 599.350	 9.044E+00	-1.513E+00	-6.850E-01	 1.037E+02	 4.935E+01	 5.432E+02	-8.245E+02	 2.535E+03	 5.185E+01	 2.330E+03	-1.294E+03	 2.012E+02	 2.055E+01	 2.044E+02	 1.177E+00	-2.022E+03	 8.547E+02	 1.732E+04	 1.235E+01	 1.506E+03	 8.377E+00	 1.102E+01
 599.400	 9.330E+00	-2.170E+00	-1.747E-01	 1.107E+02	 3.941E+01	 5.372E+02	-7.645E+02	 2.527E+03	 5.590E+01	 2.333E+03	-1.235E+03	 1.955E+02	 2.056E+01	 2.197E+02	 1.351E+00	-2.023E+03	 8.653E+02	 1.788E+04	 6.501E+01	 1.507E+03	 8.377E+00	 1.106E+01
 599.450	 9.577E+00	-1.827E+00	 1.358E-02	 9.240E+01	 4.159E+01	 5.328E+02	-7.338E+02	 2.380E+03	 4.821E+01	 2.196E+03	-1.176E+03	 1.734E+02	 2.055E+01	 2.239E+02	 1.012E-02	-2.034E+03	 9.420E+02	 1.821E+04	 1.935E+02	 1.506E+03	 8.377E+00	 1.105E+01
 599.500	 9.860E+00	-1.465E+00	-4.009E-01	 1.009E+02	 3.541E+01	 5.282E+02	-6.567E+02	 2.456E+03	 5.101E+01	 2.286E+03	-1.114E+03	 1.840E+02	 2.052E+01	 2.297E+02	-3.029E+00	-2.038E+03	 1.080E+03	 1.852E+04	 1.287E+02	 1.505E+03	 8.377E+00	 1.101E+01
 599.550	 9.761E+00	-1.966E+00	-1.607E-01	 9.615E+01	 3.217E+01	 5.252E+02	-5.924E+02	 2.420E+03	 4.504E+01	 2.263E+03	-1.042E+03	 1.756E+02	 2.050E+01	 2.294E+02	-5.437E+00	-2.043E+03	 1.218E+03	 1.865E+04	 1.219E+02	 1.503E+03	 8.377E+00	 1.096E+01
 599.600	 1.025E+01	-1.798E+00	-4.909E-01	 1.020E+02	 2.743E+01	 5.217E+02	-4.949E+02	 2.500E+03	 4.658E+01	 2.361E+03	-9.591E+02	 1.841E+02	 2.049E+01	 2.285E+02	-7.682E+00	-2.041E+03	 1.348E+03	 1.875E+04	-4.111E+01	 1.502E+03	 8.377E+00	 1.091E+01
 599.650	 1.003E+01	-2.091E+00	-5.193E-01	 1.070E+02	 2.329E+01	 5.191E+02	-4.126E+02	 2.571E+03	 4.532E+01	 2.447E+03	-8.918E+02	 2.092E+02	 2.050E+01	 2.300E+02	-6.915E+00	-2.046E+03	 1.405E+03	 1.888E+04	-4.936E+01	 1.502E+03	 8.377E+00	 1.091E+01
 599.700	 1.011E+01	-2.379E+00	-4.426E-01	 1.083E+02	 1.212E+01	 5.182E+02	-2.844E+02	 2.555E+03	 4.171E+01	 2.454E+03	-7.656E+02	 2.015E+02	 2.053E+01	 2.326E+02	-7.389E+00	-2.036E+03	 1.472E+03	 1.905E+04	-1.875E+02	 1.504E+03	 8.377E+00	 1.097E+01
 599.750	 1.024E+01	-1.779E+00	-3.906E-01	 9.782E+01	 1.077E+01	 5.179E+02	-1.956E+02	 2.471E+03	 3.451E+01	 2.387E+03	-6.655E+02	 1.987E+02	 2.055E+01	 2.318E+02	-6.518E+00	-2.040E+03	 1.516E+03	 1.915E+04	-1.550E+02	 1.506E+03	 8.377E+00	 1.105E+01
 599.800	 1.035E+01	-1.719E+00	 1.184E-02	 1.064E+02	-4.026E+00	 5.177E+02	-4.088E+01	 2.475E+03	 3.561E+01	 2.421E+03	-5.171E+02	 1.948E+02	 2.057E+01	 2.381E+02	-1.020E+01	-2.037E+03	 1.649E+03	 1.938E+04	-1.406E+02	 1.508E+03	 8.377E+00	 1.111E+01
 599.850	 9.778E+00	-2.229E+00	 1.664E-01	 9.848E+01	-8.994E+00	 5.179E+02	 5.704E+01	 2.353E+03	 3.090E+01	 2.319E+03	-3.991E+02	 1.997E+02	 2.058E+01	 2.392E+02	-1.421E+01	-2.028E+03	 1.784E+03	 1.953E+04	-3.026E+02	 1.509E+03	 8.377E+00	 1.115E+01
 599.900	 9.996E+00	-1.594E+00	 3.172E-02	 8.957E+01	-1.318E+01	 5.194E+02	 1.644E+02	 2.210E+03	 2.579E+01	 2.200E+03	-2.660E+02	 2.098E+02	 2.058E+01	 2.457E+02	-1.744E+01	-2.017E+03	 1.871E+03	 1.980E+04	-4.045E+02	 1.508E+03	 8.377E+00	 1.115E+01
 599.950	 1.061E+01	-1.624E+00	 5.823E-01	 8.703E+01	-2.117E+01	 5.206E+02	 3.031E+02	 2.143E+03	 2.248E+01	 2.161E+03	-1.157E+02	 2.108E+02	 2.057E+01	 2.568E+02	-1.775E+01	-2.021E+03	 1.845E+03	 2.015E+04	-3.908E+02	 1.507E+03	 8.377E+00	 1.112E+01
 600.000	 1.031E+01	-1.548E+00	 2.722E-01	 8.250E+01	-2.713E+01	 5.233E+02	 4.557E+02	 2.071E+03	 1.842E+01	 2.120E+03	 4.773E+01	 2.050E+02	 2.056E+01	 2.637E+02	-1.481E+01	-2.015E+03	 1.693E+03	 2.035E+04	-5.188E+02	 1.507E+03	 8.377E+00	 1.112E+01
