
These predictions were generated by FAST (v7.01.00a-bjj, 16-Feb-2012) on 04-Oct-2016 at 12:10:13.
The aerodynamic calculations were made by AeroDyn (v13.00.01a-bjj, 16-Feb-2012).

 Test file with data from WindPACT 1.5 MW turbine. LVT July 2014

Time	WindVxi	WindVyi	WindVzi	RootFxc2	RootFyc2	RootFzc2	RootMxc2	RootMyc2	RootMzc2	RootMFlp2	RootMedg2	RotThrust	RotSpeed	TwrBsFxt	TwrBsFyt	TwrBsFzt	TwrBsMxt	TwrBsMyt	TwrBsMzt	GenPwr	GenTq	BldPitch2
(s)	(m/s)	(m/s)	(m/s)	(kN)	(kN)	(kN)	(kN·m)	(kN·m)	(kN·m)	(kN·m)	(kN·m)	(kN)	(rpm)	(kN)	(kN)	(kN)	(kN·m)	(kN·m)	(kN·m)	(kW)	(kN·m)	(deg)
  60.000	 5.667E+00	-3.379E-01	 7.360E-01	 5.975E+01	 5.311E+01	 1.422E+02	-1.023E+03	 1.930E+03	 4.343E+01	 1.882E+03	-1.110E+03	 1.494E+02	 1.152E+01	 1.660E+02	-1.045E+00	-2.031E+03	 2.428E+02	 1.326E+04	 4.204E+02	 2.678E+02	 2.656E+00	 2.600E+00
  60.050	 5.693E+00	-5.522E-01	 3.401E-01	 5.846E+01	 5.175E+01	 1.394E+02	-9.925E+02	 1.923E+03	 4.204E+01	 1.876E+03	-1.079E+03	 1.515E+02	 1.153E+01	 1.689E+02	-1.311E+00	-2.032E+03	 2.639E+02	 1.340E+04	 4.530E+02	 2.680E+02	 2.657E+00	 2.600E+00
  60.100	 5.673E+00	-7.606E-01	 2.827E-01	 5.697E+01	 5.049E+01	 1.364E+02	-9.549E+02	 1.922E+03	 4.141E+01	 1.877E+03	-1.041E+03	 1.486E+02	 1.153E+01	 1.699E+02	-1.501E+00	-2.034E+03	 2.742E+02	 1.349E+04	 4.613E+02	 2.684E+02	 2.660E+00	 2.600E+00
  60.150	 5.611E+00	-9.509E-01	 3.212E-01	 5.545E+01	 4.819E+01	 1.340E+02	-9.143E+02	 1.895E+03	 4.003E+01	 1.852E+03	-9.993E+02	 1.480E+02	 1.154E+01	 1.687E+02	-1.270E+00	-2.033E+03	 2.681E+02	 1.354E+04	 5.006E+02	 2.689E+02	 2.663E+00	 2.600E+00
  60.200	 5.896E+00	-8.547E-01	 7.149E-01	 5.650E+01	 4.553E+01	 1.312E+02	-8.662E+02	 1.903E+03	 4.009E+01	 1.861E+03	-9.516E+02	 1.502E+02	 1.155E+01	 1.692E+02	-9.325E-01	-2.033E+03	 2.523E+02	 1.363E+04	 5.738E+02	 2.695E+02	 2.667E+00	 2.600E+00
  60.250	 5.891E+00	-1.162E+00	 6.069E-01	 5.794E+01	 4.207E+01	 1.293E+02	-8.094E+02	 1.909E+03	 3.958E+01	 1.870E+03	-8.951E+02	 1.467E+02	 1.156E+01	 1.706E+02	-1.048E+00	-2.034E+03	 2.379E+02	 1.374E+04	 6.456E+02	 2.701E+02	 2.671E+00	 2.600E+00
  60.300	 5.918E+00	-1.255E+00	 3.817E-01	 5.522E+01	 4.014E+01	 1.272E+02	-7.608E+02	 1.897E+03	 3.717E+01	 1.861E+03	-8.461E+02	 1.522E+02	 1.157E+01	 1.710E+02	-7.766E-01	-2.033E+03	 2.110E+02	 1.386E+04	 7.612E+02	 2.708E+02	 2.675E+00	 2.600E+00
  60.350	 6.185E+00	-9.623E-01	 6.166E-01	 5.377E+01	 3.643E+01	 1.256E+02	-7.035E+02	 1.875E+03	 3.461E+01	 1.841E+03	-7.878E+02	 1.513E+02	 1.157E+01	 1.727E+02	-5.705E-01	-2.033E+03	 1.779E+02	 1.404E+04	 8.059E+02	 2.713E+02	 2.679E+00	 2.600E+00
  60.400	 6.082E+00	-1.105E+00	 7.788E-01	 5.708E+01	 3.322E+01	 1.238E+02	-6.348E+02	 1.922E+03	 3.484E+01	 1.892E+03	-7.213E+02	 1.562E+02	 1.158E+01	 1.781E+02	-7.226E-02	-2.034E+03	 1.313E+02	 1.429E+04	 8.626E+02	 2.717E+02	 2.681E+00	 2.600E+00
  60.450	 5.903E+00	-1.235E+00	 4.391E-01	 5.810E+01	 2.877E+01	 1.227E+02	-5.653E+02	 1.928E+03	 3.254E+01	 1.901E+03	-6.522E+02	 1.586E+02	 1.158E+01	 1.809E+02	 6.314E-01	-2.034E+03	 7.176E+01	 1.449E+04	 9.006E+02	 2.718E+02	 2.682E+00	 2.600E+00
  60.500	 5.857E+00	-1.374E+00	 4.464E-01	 6.065E+01	 2.513E+01	 1.207E+02	-4.829E+02	 1.975E+03	 3.294E+01	 1.951E+03	-5.719E+02	 1.576E+02	 1.158E+01	 1.840E+02	 1.521E+00	-2.032E+03	 9.629E-01	 1.470E+04	 8.500E+02	 2.719E+02	 2.683E+00	 2.600E+00
  60.550	 5.698E+00	-1.240E+00	 7.329E-01	 5.846E+01	 2.111E+01	 1.197E+02	-4.031E+02	 1.960E+03	 2.938E+01	 1.939E+03	-4.916E+02	 1.522E+02	 1.158E+01	 1.854E+02	 2.568E+00	-2.034E+03	-7.961E+01	 1.488E+04	 8.573E+02	 2.718E+02	 2.682E+00	 2.600E+00
  60.600	 5.664E+00	-1.072E+00	 7.006E-01	 5.835E+01	 1.708E+01	 1.188E+02	-3.181E+02	 1.972E+03	 2.639E+01	 1.956E+03	-4.072E+02	 1.491E+02	 1.158E+01	 1.889E+02	 3.651E+00	-2.034E+03	-1.659E+02	 1.510E+04	 7.974E+02	 2.717E+02	 2.681E+00	 2.600E+00
  60.650	 5.597E+00	-1.191E+00	 6.179E-01	 5.757E+01	 1.327E+01	 1.173E+02	-2.351E+02	 1.990E+03	 2.354E+01	 1.977E+03	-3.252E+02	 1.459E+02	 1.158E+01	 1.919E+02	 4.893E+00	-2.033E+03	-2.595E+02	 1.529E+04	 7.508E+02	 2.716E+02	 2.681E+00	 2.600E+00
  60.700	 5.813E+00	-1.411E+00	 5.848E-01	 6.321E+01	 8.146E+00	 1.168E+02	-1.403E+02	 2.047E+03	 2.302E+01	 2.038E+03	-2.330E+02	 1.502E+02	 1.158E+01	 1.950E+02	 6.047E+00	-2.031E+03	-3.549E+02	 1.545E+04	 7.004E+02	 2.716E+02	 2.681E+00	 2.600E+00
  60.750	 5.895E+00	-1.325E+00	 2.887E-01	 6.754E+01	 3.787E+00	 1.158E+02	-5.504E+01	 2.109E+03	 2.185E+01	 2.104E+03	-1.506E+02	 1.564E+02	 1.158E+01	 1.961E+02	 7.904E+00	-2.032E+03	-4.651E+02	 1.553E+04	 7.168E+02	 2.716E+02	 2.681E+00	 2.600E+00
  60.800	 5.792E+00	-1.383E+00	 5.439E-01	 6.635E+01	-1.116E+00	 1.159E+02	 3.457E+01	 2.104E+03	 1.693E+01	 2.103E+03	-6.089E+01	 1.494E+02	 1.158E+01	 1.937E+02	 9.099E+00	-2.030E+03	-5.619E+02	 1.552E+04	 7.273E+02	 2.717E+02	 2.681E+00	 2.600E+00
  60.850	 5.919E+00	-1.145E+00	 4.273E-01	 6.935E+01	-5.521E+00	 1.151E+02	 1.218E+02	 2.137E+03	 1.622E+01	 2.140E+03	 2.473E+01	 1.507E+02	 1.158E+01	 1.933E+02	 1.014E+01	-2.027E+03	-6.515E+02	 1.554E+04	 5.842E+02	 2.718E+02	 2.682E+00	 2.600E+00
  60.900	 5.768E+00	-6.466E-01	 6.164E-01	 6.613E+01	-8.410E+00	 1.149E+02	 1.968E+02	 2.108E+03	 1.271E+01	 2.115E+03	 1.010E+02	 1.523E+02	 1.158E+01	 1.921E+02	 1.143E+01	-2.029E+03	-7.401E+02	 1.555E+04	 5.929E+02	 2.720E+02	 2.683E+00	 2.600E+00
  60.950	 5.835E+00	-5.822E-01	 5.342E-01	 6.265E+01	-1.272E+01	 1.148E+02	 2.668E+02	 2.048E+03	 8.515E+00	 2.058E+03	 1.736E+02	 1.525E+02	 1.158E+01	 1.955E+02	 1.234E+01	-2.026E+03	-8.162E+02	 1.566E+04	 4.718E+02	 2.719E+02	 2.683E+00	 2.600E+00
  61.000	 5.830E+00	-6.999E-01	 5.190E-01	 6.397E+01	-1.741E+01	 1.142E+02	 3.500E+02	 2.048E+03	 8.487E+00	 2.062E+03	 2.567E+02	 1.489E+02	 1.158E+01	 2.029E+02	 1.306E+01	-2.029E+03	-8.840E+02	 1.584E+04	 4.117E+02	 2.719E+02	 2.683E+00	 2.600E+00
  61.050	 5.817E+00	-2.488E-01	 7.677E-01	 5.817E+01	-1.912E+01	 1.139E+02	 4.111E+02	 2.008E+03	 5.295E+00	 2.024E+03	 3.196E+02	 1.500E+02	 1.158E+01	 2.065E+02	 1.403E+01	-2.028E+03	-9.517E+02	 1.590E+04	 2.441E+02	 2.719E+02	 2.683E+00	 2.600E+00
  61.100	 5.791E+00	-2.440E-01	 9.819E-01	 5.910E+01	-2.303E+01	 1.142E+02	 4.806E+02	 2.015E+03	 4.348E+00	 2.035E+03	 3.887E+02	 1.520E+02	 1.158E+01	 2.053E+02	 1.527E+01	-2.028E+03	-1.020E+03	 1.579E+04	 2.026E+02	 2.720E+02	 2.683E+00	 2.600E+00
  61.150	 5.664E+00	-3.376E-01	 9.280E-01	 6.401E+01	-2.808E+01	 1.148E+02	 5.545E+02	 2.061E+03	 4.491E+00	 2.084E+03	 4.604E+02	 1.515E+02	 1.158E+01	 2.015E+02	 1.643E+01	-2.027E+03	-1.077E+03	 1.556E+04	 1.401E+02	 2.721E+02	 2.684E+00	 2.600E+00
  61.200	 5.749E+00	-2.843E-01	 9.281E-01	 6.251E+01	-3.069E+01	 1.169E+02	 6.042E+02	 2.058E+03	 2.433E-01	 2.083E+03	 5.102E+02	 1.570E+02	 1.159E+01	 1.906E+02	 1.737E+01	-2.025E+03	-1.116E+03	 1.515E+04	 8.523E+01	 2.723E+02	 2.685E+00	 2.600E+00
  61.250	 5.642E+00	-4.787E-01	 1.094E+00	 6.431E+01	-3.428E+01	 1.178E+02	 6.641E+02	 2.098E+03	-4.780E-01	 2.126E+03	 5.682E+02	 1.589E+02	 1.159E+01	 1.835E+02	 1.720E+01	-2.023E+03	-1.120E+03	 1.481E+04	 4.696E+01	 2.725E+02	 2.687E+00	 2.600E+00
  61.300	 5.722E+00	-6.848E-01	 1.037E+00	 6.310E+01	-3.637E+01	 1.194E+02	 7.209E+02	 2.137E+03	-2.663E+00	 2.168E+03	 6.232E+02	 1.566E+02	 1.159E+01	 1.796E+02	 1.655E+01	-2.024E+03	-1.097E+03	 1.456E+04	 7.513E+01	 2.728E+02	 2.689E+00	 2.600E+00
  61.350	 5.607E+00	-8.106E-01	 9.939E-01	 6.818E+01	-4.050E+01	 1.209E+02	 7.761E+02	 2.214E+03	-3.025E+00	 2.247E+03	 6.749E+02	 1.611E+02	 1.160E+01	 1.814E+02	 1.617E+01	-2.025E+03	-1.068E+03	 1.446E+04	 1.286E+02	 2.731E+02	 2.691E+00	 2.600E+00
  61.400	 5.641E+00	-1.035E+00	 7.345E-01	 7.128E+01	-4.365E+01	 1.227E+02	 8.308E+02	 2.290E+03	-3.797E+00	 2.326E+03	 7.260E+02	 1.643E+02	 1.160E+01	 1.822E+02	 1.537E+01	-2.026E+03	-1.020E+03	 1.433E+04	 1.595E+02	 2.733E+02	 2.692E+00	 2.600E+00
  61.450	 5.843E+00	-9.590E-01	 2.403E-01	 7.521E+01	-4.725E+01	 1.247E+02	 8.886E+02	 2.356E+03	-4.037E+00	 2.394E+03	 7.808E+02	 1.615E+02	 1.161E+01	 1.781E+02	 1.490E+01	-2.028E+03	-9.673E+02	 1.409E+04	 2.376E+02	 2.736E+02	 2.694E+00	 2.600E+00
  61.500	 5.827E+00	-8.265E-01	 1.753E-01	 7.558E+01	-4.896E+01	 1.273E+02	 9.367E+02	 2.397E+03	-6.072E+00	 2.437E+03	 8.270E+02	 1.595E+02	 1.161E+01	 1.698E+02	 1.428E+01	-2.025E+03	-9.003E+02	 1.374E+04	 2.647E+02	 2.739E+02	 2.696E+00	 2.600E+00
  61.550	 6.025E+00	-7.621E-01	 1.103E-01	 7.892E+01	-5.227E+01	 1.296E+02	 9.928E+02	 2.447E+03	-6.798E+00	 2.490E+03	 8.808E+02	 1.554E+02	 1.161E+01	 1.619E+02	 1.341E+01	-2.027E+03	-8.151E+02	 1.342E+04	 3.083E+02	 2.743E+02	 2.698E+00	 2.600E+00
  61.600	 5.855E+00	-6.732E-01	 2.233E-01	 7.883E+01	-5.509E+01	 1.323E+02	 1.033E+03	 2.441E+03	-9.593E+00	 2.485E+03	 9.213E+02	 1.637E+02	 1.162E+01	 1.542E+02	 1.197E+01	-2.026E+03	-7.053E+02	 1.318E+04	 3.347E+02	 2.745E+02	 2.700E+00	 2.600E+00
  61.650	 5.721E+00	-5.309E-01	 2.280E-01	 7.546E+01	-5.663E+01	 1.350E+02	 1.078E+03	 2.416E+03	-1.310E+01	 2.462E+03	 9.672E+02	 1.617E+02	 1.162E+01	 1.585E+02	 9.966E+00	-2.028E+03	-5.742E+02	 1.326E+04	 2.580E+02	 2.747E+02	 2.702E+00	 2.600E+00
  61.700	 5.721E+00	-6.888E-01	 4.443E-02	 7.445E+01	-5.988E+01	 1.376E+02	 1.131E+03	 2.394E+03	-1.548E+01	 2.443E+03	 1.021E+03	 1.577E+02	 1.162E+01	 1.666E+02	 7.859E+00	-2.031E+03	-4.348E+02	 1.348E+04	 2.646E+02	 2.750E+02	 2.703E+00	 2.600E+00
  61.750	 6.154E+00	-6.374E-01	 4.880E-02	 7.028E+01	-6.176E+01	 1.401E+02	 1.177E+03	 2.349E+03	-1.906E+01	 2.400E+03	 1.069E+03	 1.510E+02	 1.163E+01	 1.737E+02	 6.213E+00	-2.031E+03	-3.031E+02	 1.369E+04	 2.496E+02	 2.752E+02	 2.705E+00	 2.600E+00
  61.800	 6.009E+00	-7.508E-01	-1.967E-02	 6.518E+01	-6.182E+01	 1.436E+02	 1.214E+03	 2.312E+03	-2.330E+01	 2.364E+03	 1.108E+03	 1.549E+02	 1.163E+01	 1.733E+02	 4.683E+00	-2.031E+03	-1.742E+02	 1.373E+04	 1.872E+02	 2.756E+02	 2.707E+00	 2.600E+00
  61.850	 5.974E+00	-1.015E+00	-8.203E-02	 7.171E+01	-6.594E+01	 1.460E+02	 1.273E+03	 2.368E+03	-2.220E+01	 2.423E+03	 1.164E+03	 1.519E+02	 1.164E+01	 1.712E+02	 3.511E+00	-2.032E+03	-5.320E+01	 1.371E+04	 3.273E+02	 2.760E+02	 2.710E+00	 2.600E+00
  61.900	 5.756E+00	-9.087E-01	 5.978E-02	 6.951E+01	-6.658E+01	 1.502E+02	 1.304E+03	 2.363E+03	-2.629E+01	 2.420E+03	 1.196E+03	 1.535E+02	 1.165E+01	 1.652E+02	 2.036E+00	-2.031E+03	 7.505E+01	 1.362E+04	 3.396E+02	 2.765E+02	 2.713E+00	 2.600E+00
  61.950	 5.956E+00	-7.495E-01	 3.673E-01	 7.201E+01	-6.864E+01	 1.538E+02	 1.339E+03	 2.401E+03	-2.795E+01	 2.459E+03	 1.229E+03	 1.563E+02	 1.165E+01	 1.632E+02	-1.188E-01	-2.031E+03	 2.171E+02	 1.365E+04	 4.302E+02	 2.769E+02	 2.716E+00	 2.600E+00
  62.000	 6.060E+00	-1.029E+00	-2.508E-02	 7.985E+01	-7.173E+01	 1.573E+02	 1.383E+03	 2.491E+03	-2.594E+01	 2.551E+03	 1.269E+03	 1.569E+02	 1.166E+01	 1.675E+02	-2.270E+00	-2.034E+03	 3.571E+02	 1.387E+04	 6.009E+02	 2.774E+02	 2.719E+00	 2.600E+00
  62.050	 5.945E+00	-9.149E-01	-1.804E-01	 8.059E+01	-7.185E+01	 1.610E+02	 1.404E+03	 2.527E+03	-2.647E+01	 2.588E+03	 1.288E+03	 1.576E+02	 1.166E+01	 1.772E+02	-4.521E+00	-2.034E+03	 4.909E+02	 1.425E+04	 6.918E+02	 2.777E+02	 2.721E+00	 2.600E+00
  62.100	 5.955E+00	-6.695E-01	 1.515E-01	 8.166E+01	-7.357E+01	 1.647E+02	 1.418E+03	 2.532E+03	-2.763E+01	 2.594E+03	 1.302E+03	 1.571E+02	 1.166E+01	 1.866E+02	-6.286E+00	-2.035E+03	 6.017E+02	 1.461E+04	 7.355E+02	 2.778E+02	 2.722E+00	 2.600E+00
  62.150	 5.854E+00	-7.915E-01	 4.070E-01	 8.726E+01	-7.479E+01	 1.681E+02	 1.432E+03	 2.576E+03	-2.528E+01	 2.638E+03	 1.314E+03	 1.619E+02	 1.166E+01	 1.899E+02	-7.128E+00	-2.036E+03	 6.784E+02	 1.484E+04	 8.062E+02	 2.776E+02	 2.721E+00	 2.600E+00
  62.200	 6.074E+00	-5.879E-01	 2.101E-01	 7.898E+01	-7.257E+01	 1.717E+02	 1.420E+03	 2.496E+03	-2.873E+01	 2.558E+03	 1.305E+03	 1.543E+02	 1.166E+01	 1.896E+02	-7.828E+00	-2.033E+03	 7.343E+02	 1.495E+04	 7.471E+02	 2.776E+02	 2.720E+00	 2.600E+00
  62.250	 5.760E+00	-4.814E-01	-3.939E-02	 7.938E+01	-7.264E+01	 1.748E+02	 1.411E+03	 2.461E+03	-2.761E+01	 2.523E+03	 1.298E+03	 1.568E+02	 1.166E+01	 1.892E+02	-8.175E+00	-2.033E+03	 7.668E+02	 1.504E+04	 7.258E+02	 2.775E+02	 2.720E+00	 2.600E+00
  62.300	 5.768E+00	-4.009E-01	-1.995E-01	 8.095E+01	-7.215E+01	 1.781E+02	 1.403E+03	 2.443E+03	-2.474E+01	 2.504E+03	 1.290E+03	 1.550E+02	 1.166E+01	 1.870E+02	-7.893E+00	-2.033E+03	 7.729E+02	 1.510E+04	 7.299E+02	 2.775E+02	 2.719E+00	 2.600E+00
  62.350	 5.745E+00	-2.339E-01	-2.542E-01	 7.957E+01	-7.165E+01	 1.811E+02	 1.374E+03	 2.381E+03	-2.357E+01	 2.441E+03	 1.264E+03	 1.575E+02	 1.166E+01	 1.916E+02	-7.717E+00	-2.032E+03	 7.652E+02	 1.529E+04	 6.726E+02	 2.777E+02	 2.721E+00	 2.600E+00
  62.400	 5.864E+00	-1.271E-01	-3.393E-01	 7.059E+01	-6.890E+01	 1.850E+02	 1.332E+03	 2.265E+03	-2.572E+01	 2.323E+03	 1.228E+03	 1.494E+02	 1.167E+01	 1.969E+02	-7.610E+00	-2.030E+03	 7.437E+02	 1.548E+04	 5.855E+02	 2.779E+02	 2.722E+00	 2.600E+00
  62.450	 5.601E+00	-1.176E-01	-3.708E-01	 7.048E+01	-6.724E+01	 1.881E+02	 1.290E+03	 2.226E+03	-2.261E+01	 2.283E+03	 1.187E+03	 1.524E+02	 1.167E+01	 1.962E+02	-6.747E+00	-2.029E+03	 6.925E+02	 1.552E+04	 5.240E+02	 2.783E+02	 2.725E+00	 2.600E+00
  62.500	 5.444E+00	-3.540E-02	-4.782E-01	 6.843E+01	-6.397E+01	 1.916E+02	 1.241E+03	 2.200E+03	-2.046E+01	 2.254E+03	 1.140E+03	 1.499E+02	 1.168E+01	 1.945E+02	-5.695E+00	-2.028E+03	 6.230E+02	 1.549E+04	 5.356E+02	 2.787E+02	 2.727E+00	 2.600E+00
  62.550	 5.773E+00	 4.826E-02	-3.232E-01	 7.006E+01	-6.289E+01	 1.950E+02	 1.186E+03	 2.176E+03	-1.714E+01	 2.228E+03	 1.086E+03	 1.546E+02	 1.168E+01	 1.901E+02	-4.359E+00	-2.027E+03	 5.377E+02	 1.539E+04	 4.974E+02	 2.791E+02	 2.730E+00	 2.600E+00
  62.600	 6.146E+00	-1.016E-01	-6.387E-01	 7.132E+01	-6.057E+01	 1.984E+02	 1.128E+03	 2.172E+03	-1.380E+01	 2.221E+03	 1.028E+03	 1.589E+02	 1.169E+01	 1.874E+02	-3.260E+00	-2.026E+03	 4.483E+02	 1.534E+04	 4.572E+02	 2.794E+02	 2.732E+00	 2.600E+00
  62.650	 6.139E+00	-6.524E-01	-5.623E-01	 7.406E+01	-5.860E+01	 2.018E+02	 1.073E+03	 2.179E+03	-9.148E+00	 2.225E+03	 9.730E+02	 1.583E+02	 1.169E+01	 1.879E+02	-1.840E+00	-2.027E+03	 3.474E+02	 1.536E+04	 4.478E+02	 2.797E+02	 2.734E+00	 2.600E+00
  62.700	 6.188E+00	-6.484E-01	-5.502E-01	 7.186E+01	-5.526E+01	 2.052E+02	 1.003E+03	 2.147E+03	-7.713E+00	 2.190E+03	 9.043E+02	 1.572E+02	 1.169E+01	 1.939E+02	-4.220E-01	-2.029E+03	 2.420E+02	 1.551E+04	 4.089E+02	 2.797E+02	 2.734E+00	 2.600E+00
  62.750	 6.164E+00	-1.008E+00	-7.636E-01	 6.980E+01	-5.134E+01	 2.088E+02	 9.294E+02	 2.106E+03	-5.666E+00	 2.146E+03	 8.330E+02	 1.627E+02	 1.169E+01	 1.985E+02	 7.434E-01	-2.027E+03	 1.380E+02	 1.561E+04	 2.797E+02	 2.799E+02	 2.735E+00	 2.600E+00
  62.800	 6.225E+00	-7.223E-01	-9.082E-01	 6.459E+01	-4.706E+01	 2.120E+02	 8.577E+02	 2.043E+03	-4.956E+00	 2.080E+03	 7.641E+02	 1.605E+02	 1.169E+01	 2.001E+02	 2.144E+00	-2.027E+03	 2.601E+01	 1.562E+04	 1.773E+02	 2.800E+02	 2.736E+00	 2.600E+00
  62.850	 6.181E+00	-9.484E-01	-8.751E-01	 6.439E+01	-4.489E+01	 2.149E+02	 7.919E+02	 2.008E+03	-2.868E+00	 2.042E+03	 6.999E+02	 1.602E+02	 1.169E+01	 1.950E+02	 4.187E+00	-2.027E+03	-9.841E+01	 1.545E+04	 1.297E+02	 2.800E+02	 2.736E+00	 2.600E+00
  62.900	 6.057E+00	-8.715E-01	-9.554E-01	 6.170E+01	-3.967E+01	 2.174E+02	 7.209E+02	 1.983E+03	-6.889E-01	 2.014E+03	 6.302E+02	 1.619E+02	 1.169E+01	 1.901E+02	 5.820E+00	-2.024E+03	-2.108E+02	 1.527E+04	 8.144E+01	 2.799E+02	 2.735E+00	 2.600E+00
  62.950	 6.184E+00	-1.001E+00	-1.447E+00	 6.266E+01	-3.718E+01	 2.199E+02	 6.652E+02	 1.972E+03	 2.086E+00	 2.000E+03	 5.750E+02	 1.547E+02	 1.169E+01	 1.855E+02	 7.313E+00	-2.028E+03	-3.114E+02	 1.511E+04	 1.736E+02	 2.799E+02	 2.735E+00	 2.600E+00
  63.000	 6.257E+00	-8.064E-01	-1.222E+00	 6.435E+01	-3.510E+01	 2.226E+02	 6.037E+02	 1.966E+03	 3.486E+00	 1.991E+03	 5.139E+02	 1.549E+02	 1.170E+01	 1.855E+02	 7.931E+00	-2.029E+03	-3.863E+02	 1.507E+04	 1.883E+02	 2.801E+02	 2.737E+00	 2.600E+00
  63.050	 6.284E+00	-8.943E-01	-1.336E+00	 6.381E+01	-3.127E+01	 2.255E+02	 5.376E+02	 1.950E+03	 4.098E+00	 1.973E+03	 4.485E+02	 1.551E+02	 1.170E+01	 1.908E+02	 8.384E+00	-2.030E+03	-4.504E+02	 1.514E+04	 2.289E+02	 2.802E+02	 2.737E+00	 2.600E+00
  63.100	 6.235E+00	-1.174E+00	-1.218E+00	 6.774E+01	-2.733E+01	 2.274E+02	 4.833E+02	 1.993E+03	 8.292E+00	 2.013E+03	 3.924E+02	 1.571E+02	 1.170E+01	 1.926E+02	 8.998E+00	-2.030E+03	-5.122E+02	 1.514E+04	 2.537E+02	 2.804E+02	 2.738E+00	 2.600E+00
  63.150	 6.330E+00	-1.342E+00	-9.736E-01	 6.167E+01	-2.400E+01	 2.296E+02	 4.191E+02	 1.923E+03	 6.396E+00	 1.940E+03	 3.315E+02	 1.469E+02	 1.171E+01	 1.930E+02	 1.005E+01	-2.032E+03	-5.777E+02	 1.506E+04	 3.021E+02	 2.809E+02	 2.742E+00	 2.600E+00
  63.200	 6.269E+00	-1.400E+00	-8.003E-01	 6.874E+01	-2.188E+01	 2.308E+02	 3.674E+02	 1.974E+03	 1.171E+01	 1.988E+03	 2.775E+02	 1.575E+02	 1.172E+01	 1.853E+02	 1.123E+01	-2.032E+03	-6.386E+02	 1.477E+04	 3.453E+02	 2.815E+02	 2.746E+00	 2.600E+00
  63.250	 6.295E+00	-1.582E+00	-8.363E-01	 6.351E+01	-1.664E+01	 2.322E+02	 2.990E+02	 1.926E+03	 1.171E+01	 1.937E+03	 2.113E+02	 1.621E+02	 1.172E+01	 1.774E+02	 1.137E+01	-2.029E+03	-6.694E+02	 1.444E+04	 3.023E+02	 2.821E+02	 2.749E+00	 2.600E+00
  63.300	 6.311E+00	-1.507E+00	-1.018E+00	 5.767E+01	-1.248E+01	 2.336E+02	 2.333E+02	 1.867E+03	 9.956E+00	 1.876E+03	 1.484E+02	 1.562E+02	 1.173E+01	 1.698E+02	 1.156E+01	-2.029E+03	-6.873E+02	 1.415E+04	 2.746E+02	 2.826E+02	 2.753E+00	 2.600E+00
  63.350	 6.402E+00	-1.531E+00	-6.097E-01	 5.982E+01	-1.012E+01	 2.343E+02	 1.680E+02	 1.861E+03	 1.185E+01	 1.866E+03	 8.339E+01	 1.632E+02	 1.173E+01	 1.681E+02	 1.133E+01	-2.028E+03	-6.849E+02	 1.402E+04	 2.960E+02	 2.829E+02	 2.755E+00	 2.600E+00
  63.400	 6.340E+00	-1.678E+00	-7.254E-01	 5.723E+01	-5.620E+00	 2.350E+02	 1.066E+02	 1.831E+03	 1.338E+01	 1.834E+03	 2.341E+01	 1.593E+02	 1.174E+01	 1.703E+02	 1.055E+01	-2.028E+03	-6.656E+02	 1.404E+04	 2.843E+02	 2.829E+02	 2.755E+00	 2.600E+00
  63.450	 6.552E+00	-1.707E+00	-7.574E-01	 5.981E+01	-3.531E+00	 2.351E+02	 4.067E+01	 1.822E+03	 1.575E+01	 1.822E+03	-4.203E+01	 1.610E+02	 1.173E+01	 1.733E+02	 1.053E+01	-2.032E+03	-6.576E+02	 1.410E+04	 3.120E+02	 2.829E+02	 2.755E+00	 2.600E+00
  63.500	 6.516E+00	-1.191E+00	-5.962E-01	 5.973E+01	 1.587E+00	 2.348E+02	-2.399E+01	 1.832E+03	 1.865E+01	 1.829E+03	-1.071E+02	 1.602E+02	 1.173E+01	 1.738E+02	 1.028E+01	-2.030E+03	-6.457E+02	 1.412E+04	 2.567E+02	 2.829E+02	 2.755E+00	 2.600E+00
  63.550	 6.382E+00	-1.360E+00	-5.843E-01	 6.088E+01	 3.668E+00	 2.345E+02	-9.146E+01	 1.812E+03	 2.000E+01	 1.806E+03	-1.735E+02	 1.586E+02	 1.174E+01	 1.708E+02	 1.088E+01	-2.029E+03	-6.475E+02	 1.407E+04	 3.361E+02	 2.831E+02	 2.756E+00	 2.600E+00
  63.600	 6.064E+00	-1.140E+00	-3.393E-01	 5.610E+01	 9.768E+00	 2.342E+02	-1.720E+02	 1.778E+03	 2.005E+01	 1.768E+03	-2.525E+02	 1.604E+02	 1.174E+01	 1.685E+02	 1.074E+01	-2.029E+03	-6.307E+02	 1.404E+04	 4.601E+02	 2.834E+02	 2.758E+00	 2.600E+00
  63.650	 6.221E+00	-1.135E+00	-2.403E-01	 5.953E+01	 1.355E+01	 2.332E+02	-2.406E+02	 1.818E+03	 2.339E+01	 1.806E+03	-3.228E+02	 1.615E+02	 1.175E+01	 1.666E+02	 1.021E+01	-2.029E+03	-5.980E+02	 1.407E+04	 5.056E+02	 2.838E+02	 2.760E+00	 2.600E+00
  63.700	 6.221E+00	-7.541E-01	-1.796E-01	 5.747E+01	 1.614E+01	 2.329E+02	-3.188E+02	 1.768E+03	 2.279E+01	 1.752E+03	-3.987E+02	 1.585E+02	 1.175E+01	 1.737E+02	 9.199E+00	-2.029E+03	-5.497E+02	 1.433E+04	 6.008E+02	 2.842E+02	 2.763E+00	 2.600E+00
  63.750	 6.242E+00	-9.495E-01	-1.979E-01	 6.212E+01	 2.090E+01	 2.318E+02	-3.953E+02	 1.828E+03	 2.699E+01	 1.809E+03	-4.778E+02	 1.661E+02	 1.176E+01	 1.827E+02	 7.898E+00	-2.031E+03	-4.932E+02	 1.468E+04	 6.647E+02	 2.845E+02	 2.765E+00	 2.600E+00
  63.800	 6.201E+00	-7.573E-01	-2.586E-01	 5.803E+01	 2.478E+01	 2.312E+02	-4.725E+02	 1.777E+03	 2.614E+01	 1.754E+03	-5.526E+02	 1.576E+02	 1.176E+01	 1.922E+02	 7.115E+00	-2.034E+03	-4.486E+02	 1.504E+04	 7.246E+02	 2.847E+02	 2.767E+00	 2.600E+00
  63.850	 6.200E+00	-5.374E-01	-3.990E-01	 6.141E+01	 2.767E+01	 2.293E+02	-5.485E+02	 1.790E+03	 2.951E+01	 1.763E+03	-6.291E+02	 1.609E+02	 1.176E+01	 1.961E+02	 6.887E+00	-2.033E+03	-4.192E+02	 1.525E+04	 7.317E+02	 2.849E+02	 2.768E+00	 2.600E+00
  63.900	 6.325E+00	-1.089E+00	-2.022E-01	 5.882E+01	 3.318E+01	 2.274E+02	-6.258E+02	 1.776E+03	 3.111E+01	 1.746E+03	-7.057E+02	 1.593E+02	 1.176E+01	 1.962E+02	 6.794E+00	-2.033E+03	-3.968E+02	 1.534E+04	 7.024E+02	 2.847E+02	 2.766E+00	 2.600E+00
  63.950	 6.035E+00	-9.986E-01	-1.028E-01	 5.854E+01	 3.494E+01	 2.254E+02	-6.959E+02	 1.725E+03	 3.224E+01	 1.692E+03	-7.734E+02	 1.566E+02	 1.176E+01	 1.926E+02	 6.914E+00	-2.032E+03	-3.798E+02	 1.531E+04	 6.562E+02	 2.846E+02	 2.766E+00	 2.600E+00
  64.000	 6.307E+00	-8.970E-01	 1.664E-01	 5.940E+01	 3.822E+01	 2.228E+02	-7.610E+02	 1.720E+03	 3.521E+01	 1.684E+03	-8.383E+02	 1.562E+02	 1.176E+01	 1.904E+02	 6.405E+00	-2.028E+03	-3.509E+02	 1.530E+04	 5.869E+02	 2.844E+02	 2.764E+00	 2.600E+00
  64.050	 6.204E+00	-1.226E+00	 2.418E-01	 5.426E+01	 4.340E+01	 2.208E+02	-8.317E+02	 1.672E+03	 3.457E+01	 1.632E+03	-9.067E+02	 1.521E+02	 1.175E+01	 1.903E+02	 6.161E+00	-2.031E+03	-3.269E+02	 1.533E+04	 6.088E+02	 2.842E+02	 2.763E+00	 2.600E+00
  64.100	 6.350E+00	-1.008E+00	-1.501E-01	 4.933E+01	 4.698E+01	 2.185E+02	-8.939E+02	 1.623E+03	 3.398E+01	 1.580E+03	-9.666E+02	 1.423E+02	 1.175E+01	 1.947E+02	 5.527E+00	-2.031E+03	-2.986E+02	 1.545E+04	 5.550E+02	 2.842E+02	 2.763E+00	 2.600E+00
  64.150	 6.188E+00	-9.824E-01	-2.860E-01	 5.077E+01	 5.009E+01	 2.164E+02	-9.510E+02	 1.641E+03	 3.517E+01	 1.596E+03	-1.024E+03	 1.478E+02	 1.176E+01	 1.974E+02	 5.237E+00	-2.031E+03	-2.820E+02	 1.551E+04	 5.401E+02	 2.845E+02	 2.765E+00	 2.600E+00
  64.200	 5.925E+00	-8.202E-01	 4.255E-02	 5.457E+01	 5.140E+01	 2.139E+02	-1.001E+03	 1.671E+03	 3.762E+01	 1.624E+03	-1.076E+03	 1.555E+02	 1.176E+01	 1.982E+02	 5.315E+00	-2.028E+03	-2.783E+02	 1.549E+04	 5.081E+02	 2.848E+02	 2.767E+00	 2.600E+00
  64.250	 6.173E+00	-7.825E-01	 1.283E-01	 5.879E+01	 5.268E+01	 2.110E+02	-1.035E+03	 1.728E+03	 4.070E+01	 1.679E+03	-1.113E+03	 1.564E+02	 1.177E+01	 1.934E+02	 5.710E+00	-2.026E+03	-2.843E+02	 1.532E+04	 4.426E+02	 2.852E+02	 2.770E+00	 2.600E+00
  64.300	 6.457E+00	-1.067E+00	 3.021E-01	 5.404E+01	 5.686E+01	 2.084E+02	-1.081E+03	 1.731E+03	 3.974E+01	 1.680E+03	-1.159E+03	 1.595E+02	 1.177E+01	 1.876E+02	 6.024E+00	-2.029E+03	-2.884E+02	 1.512E+04	 5.145E+02	 2.857E+02	 2.773E+00	 2.600E+00
  64.350	 6.559E+00	-9.062E-01	 2.979E-01	 5.654E+01	 5.815E+01	 2.057E+02	-1.109E+03	 1.786E+03	 4.099E+01	 1.734E+03	-1.189E+03	 1.572E+02	 1.178E+01	 1.844E+02	 6.149E+00	-2.026E+03	-2.869E+02	 1.500E+04	 4.564E+02	 2.862E+02	 2.776E+00	 2.600E+00
  64.400	 6.565E+00	-8.017E-01	 2.805E-01	 6.391E+01	 5.782E+01	 2.025E+02	-1.133E+03	 1.868E+03	 4.493E+01	 1.815E+03	-1.216E+03	 1.676E+02	 1.179E+01	 1.888E+02	 5.723E+00	-2.025E+03	-2.739E+02	 1.505E+04	 3.969E+02	 2.865E+02	 2.778E+00	 2.600E+00
  64.450	 6.314E+00	-8.989E-01	 2.342E-01	 6.281E+01	 6.057E+01	 1.998E+02	-1.155E+03	 1.914E+03	 4.465E+01	 1.860E+03	-1.240E+03	 1.664E+02	 1.179E+01	 1.905E+02	 5.502E+00	-2.028E+03	-2.665E+02	 1.505E+04	 3.571E+02	 2.867E+02	 2.779E+00	 2.600E+00
  64.500	 6.517E+00	-6.237E-01	 2.518E-01	 6.727E+01	 6.027E+01	 1.965E+02	-1.161E+03	 1.980E+03	 4.691E+01	 1.925E+03	-1.250E+03	 1.659E+02	 1.179E+01	 1.926E+02	 5.538E+00	-2.027E+03	-2.676E+02	 1.505E+04	 2.538E+02	 2.869E+02	 2.781E+00	 2.600E+00
  64.550	 6.716E+00	-6.944E-01	 4.345E-01	 6.711E+01	 6.022E+01	 1.929E+02	-1.172E+03	 1.997E+03	 4.675E+01	 1.942E+03	-1.262E+03	 1.648E+02	 1.179E+01	 1.912E+02	 6.336E+00	-2.026E+03	-2.861E+02	 1.495E+04	 2.207E+02	 2.871E+02	 2.782E+00	 2.600E+00
  64.600	 6.572E+00	-7.542E-01	 7.004E-01	 7.174E+01	 5.983E+01	 1.893E+02	-1.162E+03	 2.067E+03	 4.928E+01	 2.012E+03	-1.255E+03	 1.654E+02	 1.179E+01	 1.855E+02	 6.589E+00	-2.024E+03	-2.928E+02	 1.475E+04	 1.277E+02	 2.871E+02	 2.782E+00	 2.600E+00
  64.650	 6.450E+00	-6.605E-01	 6.236E-01	 7.288E+01	 6.011E+01	 1.856E+02	-1.154E+03	 2.095E+03	 5.023E+01	 2.041E+03	-1.248E+03	 1.689E+02	 1.179E+01	 1.783E+02	 6.829E+00	-2.023E+03	-2.939E+02	 1.452E+04	 1.039E+02	 2.871E+02	 2.782E+00	 2.600E+00
  64.700	 6.376E+00	-6.749E-01	 3.865E-01	 6.412E+01	 6.218E+01	 1.818E+02	-1.158E+03	 2.038E+03	 4.703E+01	 1.983E+03	-1.249E+03	 1.613E+02	 1.180E+01	 1.750E+02	 6.825E+00	-2.026E+03	-2.836E+02	 1.441E+04	 1.598E+02	 2.873E+02	 2.783E+00	 2.600E+00
  64.750	 6.008E+00	-3.923E-01	 7.308E-01	 6.712E+01	 6.048E+01	 1.780E+02	-1.139E+03	 2.058E+03	 4.822E+01	 2.004E+03	-1.231E+03	 1.621E+02	 1.180E+01	 1.777E+02	 6.240E+00	-2.025E+03	-2.556E+02	 1.444E+04	 1.518E+02	 2.875E+02	 2.785E+00	 2.600E+00
  64.800	 6.067E+00	-5.276E-01	 7.323E-01	 7.020E+01	 5.874E+01	 1.743E+02	-1.117E+03	 2.081E+03	 4.975E+01	 2.029E+03	-1.210E+03	 1.627E+02	 1.180E+01	 1.810E+02	 5.587E+00	-2.024E+03	-2.223E+02	 1.452E+04	 1.463E+02	 2.879E+02	 2.787E+00	 2.600E+00
  64.850	 6.079E+00	-6.262E-01	 6.727E-01	 6.824E+01	 5.937E+01	 1.706E+02	-1.104E+03	 2.082E+03	 4.925E+01	 2.030E+03	-1.198E+03	 1.662E+02	 1.181E+01	 1.817E+02	 5.339E+00	-2.027E+03	-1.936E+02	 1.453E+04	 2.004E+02	 2.885E+02	 2.791E+00	 2.600E+00
  64.900	 6.127E+00	-4.263E-01	 7.453E-01	 6.431E+01	 5.881E+01	 1.672E+02	-1.083E+03	 2.065E+03	 4.683E+01	 2.014E+03	-1.175E+03	 1.594E+02	 1.182E+01	 1.778E+02	 5.291E+00	-2.028E+03	-1.647E+02	 1.445E+04	 2.447E+02	 2.892E+02	 2.795E+00	 2.600E+00
  64.950	 6.021E+00	-5.016E-01	 6.776E-01	 6.777E+01	 5.672E+01	 1.634E+02	-1.054E+03	 2.110E+03	 4.842E+01	 2.060E+03	-1.148E+03	 1.646E+02	 1.183E+01	 1.730E+02	 4.846E+00	-2.026E+03	-1.209E+02	 1.434E+04	 2.629E+02	 2.899E+02	 2.800E+00	 2.600E+00
  65.000	 6.256E+00	-2.133E-01	 6.641E-01	 6.532E+01	 5.511E+01	 1.608E+02	-1.032E+03	 2.090E+03	 4.554E+01	 2.041E+03	-1.126E+03	 1.611E+02	 1.184E+01	 1.715E+02	 4.118E+00	-2.027E+03	-6.363E+01	 1.434E+04	 3.484E+02	 2.904E+02	 2.803E+00	 2.600E+00
  65.050	 6.422E+00	-5.211E-01	 4.587E-01	 7.015E+01	 5.310E+01	 1.572E+02	-1.002E+03	 2.150E+03	 4.723E+01	 2.103E+03	-1.099E+03	 1.724E+02	 1.184E+01	 1.716E+02	 2.828E+00	-2.025E+03	 1.128E+01	 1.444E+04	 3.284E+02	 2.908E+02	 2.806E+00	 2.600E+00
  65.100	 6.472E+00	-4.440E-01	 4.967E-01	 6.992E+01	 5.236E+01	 1.539E+02	-9.754E+02	 2.166E+03	 4.686E+01	 2.119E+03	-1.073E+03	 1.706E+02	 1.185E+01	 1.788E+02	 1.720E+00	-2.028E+03	 8.493E+01	 1.473E+04	 3.205E+02	 2.910E+02	 2.807E+00	 2.600E+00
  65.150	 6.598E+00	-5.982E-01	 3.978E-01	 7.335E+01	 4.935E+01	 1.503E+02	-9.357E+02	 2.195E+03	 4.835E+01	 2.150E+03	-1.034E+03	 1.703E+02	 1.185E+01	 1.860E+02	 3.106E-01	-2.028E+03	 1.611E+02	 1.506E+04	 2.422E+02	 2.911E+02	 2.808E+00	 2.600E+00
  65.200	 6.457E+00	-3.264E-01	 5.271E-01	 6.696E+01	 4.877E+01	 1.473E+02	-9.092E+02	 2.142E+03	 4.438E+01	 2.098E+03	-1.005E+03	 1.646E+02	 1.185E+01	 1.919E+02	-1.490E-01	-2.031E+03	 2.139E+02	 1.536E+04	 3.180E+02	 2.912E+02	 2.809E+00	 2.600E+00
  65.250	 6.432E+00	-2.831E-01	 4.539E-01	 7.007E+01	 4.532E+01	 1.450E+02	-8.667E+02	 2.138E+03	 4.369E+01	 2.096E+03	-9.628E+02	 1.677E+02	 1.185E+01	 1.944E+02	-6.136E-01	-2.028E+03	 2.610E+02	 1.558E+04	 3.013E+02	 2.914E+02	 2.810E+00	 2.600E+00
  65.300	 6.398E+00	-4.075E-01	 3.652E-01	 6.704E+01	 4.399E+01	 1.417E+02	-8.339E+02	 2.087E+03	 4.230E+01	 2.047E+03	-9.277E+02	 1.690E+02	 1.185E+01	 1.946E+02	-8.719E-01	-2.029E+03	 3.002E+02	 1.573E+04	 3.387E+02	 2.915E+02	 2.811E+00	 2.600E+00
  65.350	 6.367E+00	-3.117E-01	 3.502E-01	 6.551E+01	 4.062E+01	 1.394E+02	-7.889E+02	 2.026E+03	 4.028E+01	 1.988E+03	-8.799E+02	 1.656E+02	 1.185E+01	 1.958E+02	-1.895E+00	-2.027E+03	 3.495E+02	 1.592E+04	 3.495E+02	 2.916E+02	 2.811E+00	 2.600E+00
  65.400	 6.351E+00	-4.727E-01	 3.982E-01	 5.979E+01	 4.000E+01	 1.371E+02	-7.533E+02	 1.941E+03	 3.770E+01	 1.905E+03	-8.406E+02	 1.641E+02	 1.186E+01	 2.002E+02	-2.406E+00	-2.029E+03	 3.844E+02	 1.618E+04	 4.227E+02	 2.917E+02	 2.812E+00	 2.600E+00
  65.450	 6.299E+00	-6.325E-01	 4.451E-01	 5.812E+01	 3.650E+01	 1.346E+02	-7.026E+02	 1.890E+03	 3.622E+01	 1.856E+03	-7.876E+02	 1.595E+02	 1.186E+01	 2.088E+02	-3.486E+00	-2.030E+03	 4.199E+02	 1.653E+04	 4.648E+02	 2.918E+02	 2.812E+00	 2.600E+00
  65.500	 6.285E+00	-5.733E-01	 3.523E-01	 5.571E+01	 3.294E+01	 1.324E+02	-6.508E+02	 1.825E+03	 3.457E+01	 1.793E+03	-7.329E+02	 1.565E+02	 1.186E+01	 2.173E+02	-3.677E+00	-2.031E+03	 4.259E+02	 1.684E+04	 5.553E+02	 2.918E+02	 2.812E+00	 2.600E+00
  65.550	 6.063E+00	-4.061E-01	 4.742E-01	 5.157E+01	 3.095E+01	 1.306E+02	-5.995E+02	 1.782E+03	 3.188E+01	 1.753E+03	-6.797E+02	 1.552E+02	 1.186E+01	 2.191E+02	-3.346E+00	-2.032E+03	 4.078E+02	 1.694E+04	 5.781E+02	 2.920E+02	 2.813E+00	 2.600E+00
  65.600	 6.047E+00	-3.126E-01	 8.371E-01	 5.264E+01	 2.794E+01	 1.291E+02	-5.342E+02	 1.801E+03	 3.153E+01	 1.775E+03	-6.153E+02	 1.539E+02	 1.186E+01	 2.188E+02	-2.445E+00	-2.032E+03	 3.662E+02	 1.693E+04	 5.982E+02	 2.920E+02	 2.813E+00	 2.600E+00
  65.650	 5.830E+00	-4.709E-01	 7.073E-01	 5.082E+01	 2.453E+01	 1.282E+02	-4.698E+02	 1.789E+03	 2.902E+01	 1.766E+03	-5.505E+02	 1.518E+02	 1.186E+01	 2.127E+02	-1.718E+00	-2.029E+03	 3.175E+02	 1.673E+04	 5.687E+02	 2.919E+02	 2.813E+00	 2.600E+00
  65.700	 5.960E+00	-1.313E-01	 6.167E-01	 5.580E+01	 2.004E+01	 1.271E+02	-3.926E+02	 1.866E+03	 2.892E+01	 1.846E+03	-4.769E+02	 1.529E+02	 1.186E+01	 2.098E+02	-1.135E+00	-2.028E+03	 2.630E+02	 1.655E+04	 4.993E+02	 2.918E+02	 2.812E+00	 2.600E+00
  65.750	 6.053E+00	-1.944E-01	 7.951E-01	 5.525E+01	 1.683E+01	 1.266E+02	-3.196E+02	 1.903E+03	 2.595E+01	 1.887E+03	-4.056E+02	 1.502E+02	 1.186E+01	 2.059E+02	-4.216E-01	-2.029E+03	 1.981E+02	 1.632E+04	 4.824E+02	 2.919E+02	 2.813E+00	 2.600E+00
  65.800	 6.063E+00	-3.155E-01	 8.462E-01	 6.040E+01	 1.165E+01	 1.261E+02	-2.368E+02	 1.982E+03	 2.469E+01	 1.970E+03	-3.265E+02	 1.533E+02	 1.186E+01	 2.035E+02	 5.536E-01	-2.027E+03	 1.189E+02	 1.609E+04	 4.505E+02	 2.920E+02	 2.814E+00	 2.600E+00
  65.850	 5.810E+00	-1.178E-01	 9.628E-01	 6.391E+01	 8.017E+00	 1.256E+02	-1.488E+02	 2.073E+03	 2.371E+01	 2.065E+03	-2.427E+02	 1.537E+02	 1.186E+01	 1.995E+02	 1.874E+00	-2.028E+03	 2.521E+01	 1.579E+04	 4.867E+02	 2.921E+02	 2.814E+00	 2.600E+00
  65.900	 5.643E+00	-1.006E-01	 6.274E-01	 6.317E+01	 3.994E+00	 1.255E+02	-6.791E+01	 2.102E+03	 1.948E+01	 2.097E+03	-1.632E+02	 1.544E+02	 1.186E+01	 1.915E+02	 3.402E+00	-2.026E+03	-7.813E+01	 1.538E+04	 4.009E+02	 2.922E+02	 2.815E+00	 2.600E+00
  65.950	 5.795E+00	-3.174E-01	 8.268E-01	 6.836E+01	-2.042E+00	 1.249E+02	 3.080E+01	 2.172E+03	 1.887E+01	 2.172E+03	-6.778E+01	 1.538E+02	 1.186E+01	 1.852E+02	 4.774E+00	-2.027E+03	-1.815E+02	 1.499E+04	 4.357E+02	 2.924E+02	 2.816E+00	 2.600E+00
  66.000	 5.868E+00	-3.905E-01	 7.478E-01	 7.052E+01	-6.427E+00	 1.243E+02	 1.206E+02	 2.221E+03	 1.744E+01	 2.224E+03	 1.970E+01	 1.597E+02	 1.187E+01	 1.804E+02	 6.095E+00	-2.025E+03	-2.832E+02	 1.465E+04	 3.293E+02	 2.928E+02	 2.818E+00	 2.600E+00
  66.050	 5.610E+00	-3.495E-01	 5.991E-01	 7.464E+01	-1.152E+01	 1.240E+02	 2.167E+02	 2.278E+03	 1.645E+01	 2.286E+03	 1.131E+02	 1.666E+02	 1.187E+01	 1.791E+02	 7.470E+00	-2.026E+03	-3.844E+02	 1.441E+04	 2.990E+02	 2.930E+02	 2.820E+00	 2.600E+00
  66.100	 5.579E+00	-1.898E-01	 8.993E-01	 7.152E+01	-1.456E+01	 1.237E+02	 3.006E+02	 2.280E+03	 1.261E+01	 2.291E+03	 1.969E+02	 1.695E+02	 1.188E+01	 1.782E+02	 8.932E+00	-2.028E+03	-4.838E+02	 1.422E+04	 2.530E+02	 2.933E+02	 2.822E+00	 2.600E+00
  66.150	 5.541E+00	-1.085E-02	 6.638E-01	 7.149E+01	-1.988E+01	 1.237E+02	 3.961E+02	 2.284E+03	 9.815E+00	 2.300E+03	 2.921E+02	 1.657E+02	 1.188E+01	 1.788E+02	 9.955E+00	-2.028E+03	-5.719E+02	 1.406E+04	 1.420E+02	 2.935E+02	 2.823E+00	 2.600E+00
  66.200	 5.655E+00	-2.372E-01	 7.075E-01	 7.302E+01	-2.477E+01	 1.240E+02	 4.854E+02	 2.299E+03	 7.258E+00	 2.319E+03	 3.806E+02	 1.678E+02	 1.188E+01	 1.768E+02	 1.113E+01	-2.027E+03	-6.570E+02	 1.384E+04	 9.018E+01	 2.937E+02	 2.824E+00	 2.600E+00
  66.250	 5.665E+00	-4.119E-01	 6.257E-01	 6.869E+01	-2.763E+01	 1.247E+02	 5.646E+02	 2.275E+03	 2.671E+00	 2.299E+03	 4.608E+02	 1.641E+02	 1.189E+01	 1.695E+02	 1.225E+01	-2.025E+03	-7.339E+02	 1.352E+04	 4.939E+01	 2.938E+02	 2.825E+00	 2.600E+00
  66.300	 5.707E+00	-1.985E-01	 6.743E-01	 6.970E+01	-3.189E+01	 1.255E+02	 6.476E+02	 2.284E+03	 2.461E-01	 2.311E+03	 5.434E+02	 1.621E+02	 1.188E+01	 1.626E+02	 1.318E+01	-2.026E+03	-7.965E+02	 1.322E+04	 3.749E+01	 2.938E+02	 2.825E+00	 2.600E+00
  66.350	 5.762E+00	-2.454E-01	 6.808E-01	 6.977E+01	-3.630E+01	 1.264E+02	 7.240E+02	 2.281E+03	-2.852E+00	 2.312E+03	 6.198E+02	 1.580E+02	 1.188E+01	 1.570E+02	 1.405E+01	-2.029E+03	-8.443E+02	 1.300E+04	 9.875E+01	 2.938E+02	 2.825E+00	 2.600E+00
  66.400	 5.773E+00	-1.516E-01	 6.746E-01	 7.034E+01	-3.962E+01	 1.274E+02	 7.903E+02	 2.287E+03	-4.929E+00	 2.321E+03	 6.857E+02	 1.630E+02	 1.188E+01	 1.577E+02	 1.408E+01	-2.028E+03	-8.630E+02	 1.296E+04	 6.265E+01	 2.939E+02	 2.825E+00	 2.600E+00
  66.450	 5.701E+00	-3.308E-01	 6.165E-01	 6.932E+01	-4.296E+01	 1.281E+02	 8.583E+02	 2.299E+03	-7.296E+00	 2.336E+03	 7.531E+02	 1.552E+02	 1.189E+01	 1.627E+02	 1.370E+01	-2.030E+03	-8.610E+02	 1.306E+04	 6.630E+01	 2.940E+02	 2.826E+00	 2.600E+00
  66.500	 5.749E+00	-2.480E-01	 6.066E-01	 7.111E+01	-4.671E+01	 1.302E+02	 9.206E+02	 2.317E+03	-8.967E+00	 2.356E+03	 8.146E+02	 1.531E+02	 1.189E+01	 1.656E+02	 1.371E+01	-2.032E+03	-8.547E+02	 1.314E+04	 1.625E+02	 2.943E+02	 2.828E+00	 2.600E+00
  66.550	 5.868E+00	-3.475E-01	 5.850E-01	 6.791E+01	-4.750E+01	 1.323E+02	 9.634E+02	 2.323E+03	-1.211E+01	 2.364E+03	 8.570E+02	 1.548E+02	 1.190E+01	 1.656E+02	 1.359E+01	-2.029E+03	-8.340E+02	 1.316E+04	 1.694E+02	 2.947E+02	 2.830E+00	 2.600E+00
  66.600	 5.862E+00	-1.367E-01	 6.486E-01	 7.451E+01	-5.212E+01	 1.345E+02	 1.018E+03	 2.386E+03	-1.150E+01	 2.430E+03	 9.091E+02	 1.570E+02	 1.190E+01	 1.637E+02	 1.309E+01	-2.030E+03	-7.951E+02	 1.313E+04	 2.282E+02	 2.951E+02	 2.833E+00	 2.600E+00
  66.650	 5.673E+00	-4.548E-01	 7.472E-01	 7.729E+01	-5.495E+01	 1.371E+02	 1.062E+03	 2.428E+03	-1.206E+01	 2.473E+03	 9.510E+02	 1.559E+02	 1.191E+01	 1.589E+02	 1.266E+01	-2.031E+03	-7.445E+02	 1.305E+04	 3.133E+02	 2.954E+02	 2.836E+00	 2.600E+00
  66.700	 5.764E+00	-3.847E-01	 6.920E-01	 7.799E+01	-5.683E+01	 1.398E+02	 1.096E+03	 2.455E+03	-1.323E+01	 2.502E+03	 9.837E+02	 1.612E+02	 1.191E+01	 1.566E+02	 1.134E+01	-2.028E+03	-6.656E+02	 1.308E+04	 3.255E+02	 2.958E+02	 2.838E+00	 2.600E+00
  66.750	 5.745E+00	-4.827E-01	 4.967E-01	 7.470E+01	-5.757E+01	 1.432E+02	 1.123E+03	 2.436E+03	-1.571E+01	 2.484E+03	 1.011E+03	 1.608E+02	 1.191E+01	 1.585E+02	 1.003E+01	-2.027E+03	-5.764E+02	 1.325E+04	 3.048E+02	 2.960E+02	 2.839E+00	 2.600E+00
  66.800	 5.823E+00	-5.822E-01	 6.016E-01	 7.711E+01	-6.090E+01	 1.460E+02	 1.161E+03	 2.451E+03	-1.556E+01	 2.501E+03	 1.049E+03	 1.576E+02	 1.191E+01	 1.659E+02	 8.695E+00	-2.029E+03	-4.797E+02	 1.360E+04	 3.724E+02	 2.961E+02	 2.840E+00	 2.600E+00
  66.850	 5.481E+00	-2.689E-01	 5.500E-01	 7.529E+01	-6.232E+01	 1.492E+02	 1.185E+03	 2.433E+03	-1.720E+01	 2.484E+03	 1.073E+03	 1.598E+02	 1.191E+01	 1.724E+02	 7.204E+00	-2.029E+03	-3.759E+02	 1.395E+04	 3.547E+02	 2.962E+02	 2.840E+00	 2.600E+00
  66.900	 5.223E+00	-3.088E-01	 7.407E-01	 7.664E+01	-6.376E+01	 1.524E+02	 1.215E+03	 2.444E+03	-1.668E+01	 2.496E+03	 1.103E+03	 1.587E+02	 1.191E+01	 1.806E+02	 6.019E+00	-2.028E+03	-2.764E+02	 1.433E+04	 3.882E+02	 2.962E+02	 2.840E+00	 2.600E+00
  66.950	 5.338E+00	-2.469E-01	 7.050E-01	 7.402E+01	-6.476E+01	 1.561E+02	 1.230E+03	 2.406E+03	-1.912E+01	 2.459E+03	 1.120E+03	 1.612E+02	 1.191E+01	 1.815E+02	 4.752E+00	-2.027E+03	-1.739E+02	 1.455E+04	 3.555E+02	 2.961E+02	 2.840E+00	 2.600E+00
  67.000	 5.273E+00	-1.322E-01	 7.408E-01	 7.732E+01	-6.702E+01	 1.597E+02	 1.256E+03	 2.413E+03	-1.845E+01	 2.467E+03	 1.145E+03	 1.628E+02	 1.191E+01	 1.794E+02	 3.745E+00	-2.028E+03	-7.425E+01	 1.472E+04	 4.320E+02	 2.961E+02	 2.839E+00	 2.600E+00
  67.050	 5.280E+00	 1.852E-02	 5.823E-01	 7.682E+01	-6.733E+01	 1.634E+02	 1.277E+03	 2.409E+03	-1.853E+01	 2.465E+03	 1.167E+03	 1.567E+02	 1.191E+01	 1.830E+02	 2.304E+00	-2.028E+03	 3.522E+01	 1.502E+04	 4.860E+02	 2.959E+02	 2.839E+00	 2.600E+00
  67.100	 5.142E+00	 1.680E-02	 5.215E-01	 7.565E+01	-6.739E+01	 1.675E+02	 1.285E+03	 2.386E+03	-2.019E+01	 2.441E+03	 1.176E+03	 1.621E+02	 1.191E+01	 1.895E+02	 3.951E-01	-2.026E+03	 1.523E+02	 1.541E+04	 4.774E+02	 2.958E+02	 2.838E+00	 2.600E+00
  67.150	 5.303E+00	 3.026E-01	 6.611E-01	 7.435E+01	-6.855E+01	 1.715E+02	 1.300E+03	 2.349E+03	-2.147E+01	 2.406E+03	 1.192E+03	 1.560E+02	 1.191E+01	 1.995E+02	-1.330E+00	-2.028E+03	 2.610E+02	 1.588E+04	 5.072E+02	 2.956E+02	 2.837E+00	 2.600E+00
  67.200	 5.458E+00	 2.014E-01	 6.007E-01	 7.486E+01	-6.984E+01	 1.753E+02	 1.311E+03	 2.317E+03	-2.163E+01	 2.374E+03	 1.204E+03	 1.566E+02	 1.191E+01	 2.103E+02	-2.739E+00	-2.029E+03	 3.544E+02	 1.634E+04	 5.080E+02	 2.955E+02	 2.836E+00	 2.600E+00
  67.250	 5.285E+00	 2.850E-01	 8.221E-01	 7.503E+01	-7.056E+01	 1.792E+02	 1.320E+03	 2.280E+03	-2.138E+01	 2.338E+03	 1.216E+03	 1.551E+02	 1.191E+01	 2.155E+02	-3.514E+00	-2.030E+03	 4.246E+02	 1.664E+04	 4.936E+02	 2.954E+02	 2.835E+00	 2.600E+00
  67.300	 5.143E+00	 3.253E-01	 7.378E-01	 6.821E+01	-6.902E+01	 1.831E+02	 1.312E+03	 2.184E+03	-2.433E+01	 2.242E+03	 1.212E+03	 1.524E+02	 1.190E+01	 2.173E+02	-3.945E+00	-2.029E+03	 4.774E+02	 1.678E+04	 3.788E+02	 2.951E+02	 2.833E+00	 2.600E+00
  67.350	 5.256E+00	 2.447E-01	 4.182E-01	 6.568E+01	-6.799E+01	 1.864E+02	 1.311E+03	 2.129E+03	-2.391E+01	 2.186E+03	 1.213E+03	 1.522E+02	 1.190E+01	 2.147E+02	-4.172E+00	-2.027E+03	 5.162E+02	 1.677E+04	 3.107E+02	 2.949E+02	 2.832E+00	 2.600E+00
  67.400	 5.159E+00	 3.614E-01	 3.852E-01	 6.198E+01	-6.766E+01	 1.897E+02	 1.307E+03	 2.059E+03	-2.443E+01	 2.116E+03	 1.213E+03	 1.468E+02	 1.190E+01	 2.127E+02	-4.332E+00	-2.028E+03	 5.438E+02	 1.670E+04	 2.452E+02	 2.948E+02	 2.832E+00	 2.600E+00
  67.450	 5.090E+00	 2.620E-01	 5.525E-01	 6.324E+01	-6.784E+01	 1.928E+02	 1.298E+03	 2.045E+03	-2.332E+01	 2.102E+03	 1.204E+03	 1.507E+02	 1.190E+01	 2.095E+02	-4.519E+00	-2.028E+03	 5.624E+02	 1.656E+04	 2.356E+02	 2.950E+02	 2.832E+00	 2.600E+00
  67.500	 5.182E+00	 1.091E-01	 5.616E-01	 6.273E+01	-6.651E+01	 1.965E+02	 1.278E+03	 2.032E+03	-2.289E+01	 2.088E+03	 1.184E+03	 1.541E+02	 1.190E+01	 2.045E+02	-4.424E+00	-2.026E+03	 5.669E+02	 1.635E+04	 1.801E+02	 2.951E+02	 2.833E+00	 2.600E+00
  67.550	 5.204E+00	 3.159E-02	 6.837E-01	 6.195E+01	-6.455E+01	 1.999E+02	 1.252E+03	 2.039E+03	-2.200E+01	 2.094E+03	 1.159E+03	 1.527E+02	 1.191E+01	 1.994E+02	-4.214E+00	-2.025E+03	 5.593E+02	 1.611E+04	 1.854E+02	 2.953E+02	 2.835E+00	 2.600E+00
  67.600	 5.074E+00	-1.946E-01	 8.262E-01	 6.320E+01	-6.280E+01	 2.033E+02	 1.223E+03	 2.072E+03	-2.046E+01	 2.126E+03	 1.128E+03	 1.540E+02	 1.191E+01	 1.981E+02	-4.264E+00	-2.026E+03	 5.468E+02	 1.593E+04	 2.593E+02	 2.956E+02	 2.837E+00	 2.600E+00
  67.650	 5.099E+00	-2.799E-01	 9.647E-01	 7.050E+01	-6.262E+01	 2.064E+02	 1.186E+03	 2.137E+03	-1.624E+01	 2.188E+03	 1.088E+03	 1.645E+02	 1.191E+01	 1.951E+02	-3.775E+00	-2.027E+03	 5.157E+02	 1.571E+04	 2.732E+02	 2.959E+02	 2.839E+00	 2.600E+00
  67.700	 4.813E+00	-2.717E-01	 8.300E-01	 6.622E+01	-5.886E+01	 2.098E+02	 1.138E+03	 2.140E+03	-1.636E+01	 2.189E+03	 1.040E+03	 1.554E+02	 1.192E+01	 1.924E+02	-3.292E+00	-2.027E+03	 4.768E+02	 1.550E+04	 3.064E+02	 2.963E+02	 2.841E+00	 2.600E+00
  67.750	 5.239E+00	-4.419E-01	 6.532E-01	 7.384E+01	-5.751E+01	 2.129E+02	 1.089E+03	 2.216E+03	-1.167E+01	 2.263E+03	 9.875E+02	 1.682E+02	 1.192E+01	 1.897E+02	-2.826E+00	-2.027E+03	 4.315E+02	 1.528E+04	 3.204E+02	 2.966E+02	 2.843E+00	 2.600E+00
  67.800	 5.191E+00	-3.050E-01	 5.459E-01	 7.318E+01	-5.368E+01	 2.157E+02	 1.026E+03	 2.232E+03	-9.772E+00	 2.276E+03	 9.235E+02	 1.695E+02	 1.193E+01	 1.872E+02	-1.997E+00	-2.027E+03	 3.729E+02	 1.507E+04	 2.806E+02	 2.968E+02	 2.844E+00	 2.600E+00
  67.850	 5.018E+00	-4.392E-01	 5.564E-01	 7.462E+01	-5.125E+01	 2.186E+02	 9.599E+02	 2.236E+03	-7.377E+00	 2.277E+03	 8.575E+02	 1.755E+02	 1.193E+01	 1.849E+02	-1.185E+00	-2.027E+03	 3.093E+02	 1.487E+04	 2.392E+02	 2.972E+02	 2.847E+00	 2.600E+00
  67.900	 5.138E+00	-4.595E-01	 4.803E-01	 7.116E+01	-4.735E+01	 2.210E+02	 8.927E+02	 2.211E+03	-6.102E+00	 2.250E+03	 7.915E+02	 1.678E+02	 1.193E+01	 1.811E+02	 3.572E-02	-2.027E+03	 2.343E+02	 1.465E+04	 2.435E+02	 2.974E+02	 2.848E+00	 2.600E+00
  67.950	 4.684E+00	-4.498E-01	 6.371E-01	 7.074E+01	-4.404E+01	 2.233E+02	 8.166E+02	 2.179E+03	-3.331E+00	 2.214E+03	 7.169E+02	 1.737E+02	 1.194E+01	 1.786E+02	 9.418E-01	-2.027E+03	 1.641E+02	 1.447E+04	 1.768E+02	 2.977E+02	 2.850E+00	 2.600E+00
  68.000	 4.841E+00	-4.144E-01	 6.029E-01	 7.163E+01	-4.012E+01	 2.252E+02	 7.475E+02	 2.172E+03	 1.165E+00	 2.203E+03	 6.482E+02	 1.741E+02	 1.194E+01	 1.744E+02	 1.826E+00	-2.025E+03	 9.530E+01	 1.429E+04	 1.590E+02	 2.977E+02	 2.850E+00	 2.600E+00
  68.050	 4.796E+00	-4.392E-01	 5.763E-01	 6.509E+01	-3.586E+01	 2.274E+02	 6.671E+02	 2.089E+03	 6.456E-01	 2.117E+03	 5.717E+02	 1.662E+02	 1.194E+01	 1.735E+02	 2.734E+00	-2.026E+03	 2.689E+01	 1.421E+04	 1.803E+02	 2.979E+02	 2.851E+00	 2.600E+00
  68.100	 4.730E+00	-2.960E-01	 5.304E-01	 6.645E+01	-3.325E+01	 2.294E+02	 5.972E+02	 2.069E+03	 3.717E+00	 2.094E+03	 5.027E+02	 1.638E+02	 1.194E+01	 1.729E+02	 3.623E+00	-2.029E+03	-3.931E+01	 1.417E+04	 2.006E+02	 2.982E+02	 2.853E+00	 2.600E+00
  68.150	 5.137E+00	-1.082E-01	 5.330E-01	 5.891E+01	-2.737E+01	 2.319E+02	 5.149E+02	 1.997E+03	 3.222E+00	 2.018E+03	 4.238E+02	 1.560E+02	 1.195E+01	 1.764E+02	 4.326E+00	-2.028E+03	-1.002E+02	 1.425E+04	 1.531E+02	 2.986E+02	 2.856E+00	 2.600E+00
  68.200	 5.133E+00	-2.232E-01	 5.732E-01	 6.241E+01	-2.352E+01	 2.338E+02	 4.392E+02	 2.021E+03	 7.151E+00	 2.039E+03	 3.471E+02	 1.626E+02	 1.196E+01	 1.797E+02	 5.237E+00	-2.029E+03	-1.619E+02	 1.434E+04	 1.891E+02	 2.992E+02	 2.859E+00	 2.600E+00
  68.250	 5.149E+00	-9.012E-02	 7.126E-01	 6.072E+01	-1.980E+01	 2.353E+02	 3.661E+02	 2.006E+03	 8.855E+00	 2.021E+03	 2.747E+02	 1.559E+02	 1.196E+01	 1.803E+02	 5.983E+00	-2.030E+03	-2.164E+02	 1.439E+04	 2.000E+02	 2.998E+02	 2.863E+00	 2.600E+00
  68.300	 5.218E+00	-5.355E-01	 8.266E-01	 6.164E+01	-1.586E+01	 2.372E+02	 2.928E+02	 2.021E+03	 1.091E+01	 2.032E+03	 2.009E+02	 1.574E+02	 1.197E+01	 1.795E+02	 6.556E+00	-2.030E+03	-2.627E+02	 1.441E+04	 2.445E+02	 3.005E+02	 2.868E+00	 2.600E+00
  68.350	 5.405E+00	-5.680E-01	 8.802E-01	 6.591E+01	-1.292E+01	 2.385E+02	 2.181E+02	 2.047E+03	 1.478E+01	 2.054E+03	 1.250E+02	 1.661E+02	 1.198E+01	 1.780E+02	 6.731E+00	-2.029E+03	-2.957E+02	 1.441E+04	 1.926E+02	 3.009E+02	 2.870E+00	 2.600E+00
  68.400	 5.172E+00	-4.735E-01	 8.329E-01	 6.624E+01	-9.754E+00	 2.394E+02	 1.475E+02	 2.049E+03	 1.666E+01	 2.053E+03	 5.437E+01	 1.641E+02	 1.198E+01	 1.765E+02	 6.995E+00	-2.029E+03	-3.252E+02	 1.444E+04	 2.178E+02	 3.012E+02	 2.872E+00	 2.600E+00
  68.450	 5.581E+00	-2.947E-01	 9.959E-01	 7.126E+01	-6.776E+00	 2.403E+02	 8.061E+01	 2.084E+03	 2.069E+01	 2.086E+03	-1.403E+01	 1.711E+02	 1.198E+01	 1.782E+02	 6.918E+00	-2.029E+03	-3.446E+02	 1.457E+04	 2.224E+02	 3.013E+02	 2.873E+00	 2.600E+00
  68.500	 5.410E+00	-1.080E-01	 7.472E-01	 6.916E+01	-2.107E+00	 2.407E+02	 7.254E+00	 2.073E+03	 2.156E+01	 2.072E+03	-8.681E+01	 1.679E+02	 1.198E+01	 1.822E+02	 7.235E+00	-2.028E+03	-3.698E+02	 1.478E+04	 2.439E+02	 3.012E+02	 2.872E+00	 2.600E+00
  68.550	 5.437E+00	-4.427E-01	 7.369E-01	 6.741E+01	 2.524E+00	 2.417E+02	-6.536E+01	 2.044E+03	 2.173E+01	 2.039E+03	-1.580E+02	 1.686E+02	 1.198E+01	 1.878E+02	 7.577E+00	-2.026E+03	-3.945E+02	 1.502E+04	 2.101E+02	 3.012E+02	 2.872E+00	 2.600E+00
  68.600	 5.380E+00	-1.925E-01	 7.376E-01	 6.378E+01	 7.189E+00	 2.415E+02	-1.352E+02	 2.005E+03	 2.209E+01	 1.997E+03	-2.260E+02	 1.653E+02	 1.198E+01	 1.908E+02	 8.134E+00	-2.028E+03	-4.215E+02	 1.522E+04	 2.568E+02	 3.011E+02	 2.872E+00	 2.600E+00
  68.650	 5.376E+00	-2.311E-01	 8.498E-01	 6.790E+01	 9.187E+00	 2.408E+02	-1.906E+02	 2.004E+03	 2.593E+01	 1.993E+03	-2.813E+02	 1.669E+02	 1.198E+01	 1.900E+02	 8.491E+00	-2.025E+03	-4.406E+02	 1.534E+04	 2.642E+02	 3.011E+02	 2.872E+00	 2.600E+00
  68.700	 5.137E+00	-3.161E-01	 6.714E-01	 6.278E+01	 1.317E+01	 2.399E+02	-2.570E+02	 1.934E+03	 2.570E+01	 1.921E+03	-3.445E+02	 1.616E+02	 1.198E+01	 1.914E+02	 8.670E+00	-2.026E+03	-4.507E+02	 1.550E+04	 3.421E+02	 3.011E+02	 2.871E+00	 2.600E+00
  68.750	 5.176E+00	-2.812E-01	 6.205E-01	 6.564E+01	 1.568E+01	 2.391E+02	-3.149E+02	 1.931E+03	 2.826E+01	 1.915E+03	-4.022E+02	 1.650E+02	 1.198E+01	 1.933E+02	 8.325E+00	-2.026E+03	-4.450E+02	 1.569E+04	 3.528E+02	 3.010E+02	 2.871E+00	 2.600E+00
  68.800	 5.065E+00	 2.037E-02	 4.973E-01	 5.809E+01	 2.118E+01	 2.389E+02	-3.833E+02	 1.864E+03	 2.560E+01	 1.844E+03	-4.675E+02	 1.560E+02	 1.198E+01	 1.992E+02	 7.999E+00	-2.027E+03	-4.359E+02	 1.596E+04	 3.829E+02	 3.010E+02	 2.871E+00	 2.600E+00
  68.850	 5.305E+00	-1.955E-01	 5.307E-01	 6.402E+01	 2.311E+01	 2.373E+02	-4.358E+02	 1.900E+03	 2.920E+01	 1.878E+03	-5.215E+02	 1.578E+02	 1.198E+01	 2.046E+02	 7.782E+00	-2.027E+03	-4.262E+02	 1.622E+04	 3.420E+02	 3.008E+02	 2.869E+00	 2.600E+00
  68.900	 5.406E+00	-2.614E-01	 5.150E-01	 6.551E+01	 2.618E+01	 2.363E+02	-4.991E+02	 1.895E+03	 3.006E+01	 1.870E+03	-5.845E+02	 1.607E+02	 1.197E+01	 2.117E+02	 7.648E+00	-2.028E+03	-4.182E+02	 1.648E+04	 2.992E+02	 3.005E+02	 2.868E+00	 2.600E+00
  68.950	 5.325E+00	-9.200E-02	 6.646E-01	 6.396E+01	 2.977E+01	 2.345E+02	-5.569E+02	 1.881E+03	 3.064E+01	 1.854E+03	-6.416E+02	 1.554E+02	 1.197E+01	 2.142E+02	 7.628E+00	-2.027E+03	-4.119E+02	 1.659E+04	 2.455E+02	 3.002E+02	 2.866E+00	 2.600E+00
  69.000	 5.150E+00	-2.709E-01	 7.403E-01	 6.397E+01	 3.291E+01	 2.323E+02	-6.212E+02	 1.862E+03	 3.185E+01	 1.832E+03	-7.050E+02	 1.558E+02	 1.197E+01	 2.136E+02	 7.777E+00	-2.027E+03	-4.071E+02	 1.656E+04	 1.642E+02	 2.999E+02	 2.864E+00	 2.600E+00
  69.050	 5.097E+00	-5.581E-01	 7.475E-01	 6.148E+01	 3.678E+01	 2.300E+02	-6.818E+02	 1.838E+03	 3.189E+01	 1.805E+03	-7.645E+02	 1.509E+02	 1.196E+01	 2.077E+02	 7.965E+00	-2.027E+03	-4.001E+02	 1.636E+04	 1.244E+02	 2.996E+02	 2.862E+00	 2.600E+00
  69.100	 5.028E+00	-7.418E-01	 7.970E-01	 6.386E+01	 3.931E+01	 2.273E+02	-7.387E+02	 1.844E+03	 3.453E+01	 1.809E+03	-8.215E+02	 1.535E+02	 1.196E+01	 2.027E+02	 7.810E+00	-2.025E+03	-3.824E+02	 1.612E+04	 5.014E+01	 2.996E+02	 2.862E+00	 2.600E+00
  69.150	 5.109E+00	-7.435E-01	 6.395E-01	 6.402E+01	 4.234E+01	 2.240E+02	-7.918E+02	 1.844E+03	 3.738E+01	 1.806E+03	-8.746E+02	 1.524E+02	 1.196E+01	 1.941E+02	 7.535E+00	-2.025E+03	-3.583E+02	 1.580E+04	 4.916E+01	 2.996E+02	 2.862E+00	 2.600E+00
  69.200	 4.841E+00	-7.786E-01	 6.183E-01	 5.708E+01	 4.723E+01	 2.222E+02	-8.627E+02	 1.785E+03	 3.515E+01	 1.744E+03	-9.428E+02	 1.512E+02	 1.197E+01	 1.925E+02	 7.042E+00	-2.027E+03	-3.265E+02	 1.559E+04	 1.079E+02	 2.999E+02	 2.864E+00	 2.600E+00
  69.250	 5.103E+00	-9.945E-01	 5.428E-01	 5.944E+01	 4.846E+01	 2.186E+02	-9.143E+02	 1.799E+03	 3.840E+01	 1.756E+03	-9.949E+02	 1.545E+02	 1.197E+01	 1.879E+02	 6.489E+00	-2.026E+03	-2.897E+02	 1.532E+04	 1.591E+02	 3.001E+02	 2.865E+00	 2.600E+00
  69.300	 5.119E+00	-9.543E-01	 7.265E-01	 6.063E+01	 5.141E+01	 2.159E+02	-9.676E+02	 1.828E+03	 4.076E+01	 1.783E+03	-1.050E+03	 1.615E+02	 1.197E+01	 1.863E+02	 5.735E+00	-2.026E+03	-2.462E+02	 1.511E+04	 2.341E+02	 3.004E+02	 2.867E+00	 2.600E+00
  69.350	 5.219E+00	-9.883E-01	 7.187E-01	 6.363E+01	 5.293E+01	 2.128E+02	-1.013E+03	 1.875E+03	 4.316E+01	 1.827E+03	-1.097E+03	 1.625E+02	 1.198E+01	 1.844E+02	 4.995E+00	-2.026E+03	-2.008E+02	 1.491E+04	 2.356E+02	 3.007E+02	 2.869E+00	 2.600E+00
  69.400	 5.095E+00	-9.501E-01	 9.390E-01	 5.950E+01	 5.675E+01	 2.098E+02	-1.064E+03	 1.877E+03	 4.243E+01	 1.827E+03	-1.148E+03	 1.605E+02	 1.198E+01	 1.809E+02	 4.694E+00	-2.030E+03	-1.619E+02	 1.470E+04	 3.336E+02	 3.009E+02	 2.870E+00	 2.600E+00
  69.450	 5.001E+00	-7.519E-01	 9.453E-01	 6.371E+01	 5.847E+01	 2.066E+02	-1.104E+03	 1.945E+03	 4.537E+01	 1.893E+03	-1.191E+03	 1.664E+02	 1.198E+01	 1.801E+02	 4.074E+00	-2.031E+03	-1.173E+02	 1.456E+04	 3.331E+02	 3.011E+02	 2.872E+00	 2.600E+00
  69.500	 4.942E+00	-7.239E-01	 8.247E-01	 6.630E+01	 5.915E+01	 2.040E+02	-1.142E+03	 1.980E+03	 4.583E+01	 1.926E+03	-1.231E+03	 1.693E+02	 1.199E+01	 1.849E+02	 3.468E+00	-2.030E+03	-7.459E+01	 1.454E+04	 3.289E+02	 3.014E+02	 2.874E+00	 2.600E+00
  69.550	 4.847E+00	-8.579E-01	 8.106E-01	 6.507E+01	 6.162E+01	 1.999E+02	-1.170E+03	 2.017E+03	 4.761E+01	 1.962E+03	-1.260E+03	 1.645E+02	 1.199E+01	 1.808E+02	 3.124E+00	-2.032E+03	-3.880E+01	 1.434E+04	 2.900E+02	 3.018E+02	 2.876E+00	 2.600E+00
  69.600	 4.952E+00	-7.932E-01	 7.072E-01	 6.640E+01	 6.181E+01	 1.970E+02	-1.196E+03	 2.022E+03	 4.798E+01	 1.966E+03	-1.286E+03	 1.667E+02	 1.199E+01	 1.789E+02	 2.964E+00	-2.030E+03	-8.576E+00	 1.418E+04	 3.023E+02	 3.021E+02	 2.878E+00	 2.600E+00
  69.650	 4.832E+00	-6.294E-01	 1.011E+00	 6.506E+01	 6.356E+01	 1.928E+02	-1.213E+03	 2.034E+03	 5.004E+01	 1.977E+03	-1.304E+03	 1.650E+02	 1.200E+01	 1.725E+02	 2.576E+00	-2.030E+03	 2.481E+01	 1.392E+04	 2.850E+02	 3.023E+02	 2.879E+00	 2.600E+00
  69.700	 4.971E+00	-4.948E-01	 8.393E-01	 6.922E+01	 6.298E+01	 1.895E+02	-1.221E+03	 2.062E+03	 5.152E+01	 2.005E+03	-1.314E+03	 1.759E+02	 1.200E+01	 1.662E+02	 2.297E+00	-2.028E+03	 5.567E+01	 1.369E+04	 2.877E+02	 3.023E+02	 2.880E+00	 2.600E+00
  69.750	 5.273E+00	-5.166E-01	 8.559E-01	 6.731E+01	 6.262E+01	 1.859E+02	-1.215E+03	 2.040E+03	 5.199E+01	 1.983E+03	-1.307E+03	 1.679E+02	 1.200E+01	 1.629E+02	 1.636E+00	-2.027E+03	 9.330E+01	 1.357E+04	 2.892E+02	 3.026E+02	 2.881E+00	 2.600E+00
  69.800	 5.231E+00	-5.441E-01	 8.365E-01	 6.356E+01	 6.277E+01	 1.821E+02	-1.212E+03	 2.004E+03	 5.098E+01	 1.947E+03	-1.301E+03	 1.677E+02	 1.201E+01	 1.623E+02	 1.323E+00	-2.027E+03	 1.249E+02	 1.358E+04	 3.545E+02	 3.028E+02	 2.882E+00	 2.600E+00
  69.850	 5.251E+00	-6.485E-01	 9.064E-01	 6.163E+01	 6.334E+01	 1.785E+02	-1.194E+03	 2.012E+03	 5.110E+01	 1.956E+03	-1.284E+03	 1.628E+02	 1.201E+01	 1.683E+02	 6.954E-01	-2.030E+03	 1.609E+02	 1.378E+04	 3.403E+02	 3.032E+02	 2.885E+00	 2.600E+00
  69.900	 5.303E+00	-6.044E-01	 1.057E+00	 6.913E+01	 6.003E+01	 1.749E+02	-1.159E+03	 2.083E+03	 5.406E+01	 2.029E+03	-1.253E+03	 1.647E+02	 1.201E+01	 1.764E+02	 1.050E-03	-2.027E+03	 1.944E+02	 1.406E+04	 2.533E+02	 3.036E+02	 2.887E+00	 2.600E+00
  69.950	 5.314E+00	-3.957E-01	 7.682E-01	 6.171E+01	 6.120E+01	 1.718E+02	-1.141E+03	 2.062E+03	 4.979E+01	 2.008E+03	-1.233E+03	 1.614E+02	 1.202E+01	 1.797E+02	 8.169E-02	-2.031E+03	 2.094E+02	 1.426E+04	 2.642E+02	 3.040E+02	 2.890E+00	 2.600E+00
  70.000	 5.503E+00	-5.098E-01	 8.842E-01	 6.402E+01	 5.850E+01	 1.686E+02	-1.101E+03	 2.103E+03	 4.921E+01	 2.051E+03	-1.196E+03	 1.585E+02	 1.203E+01	 1.819E+02	 2.201E-01	-2.029E+03	 2.183E+02	 1.441E+04	 1.934E+02	 3.044E+02	 2.893E+00	 2.600E+00
  70.050	 5.640E+00	-5.156E-01	 8.079E-01	 6.984E+01	 5.657E+01	 1.655E+02	-1.055E+03	 2.194E+03	 5.045E+01	 2.144E+03	-1.154E+03	 1.653E+02	 1.203E+01	 1.811E+02	 3.876E-01	-2.028E+03	 2.238E+02	 1.448E+04	 7.510E+01	 3.048E+02	 2.895E+00	 2.600E+00
  70.100	 5.736E+00	-5.854E-01	 9.062E-01	 7.543E+01	 5.312E+01	 1.618E+02	-1.005E+03	 2.272E+03	 5.131E+01	 2.224E+03	-1.107E+03	 1.682E+02	 1.203E+01	 1.809E+02	 3.576E-01	-2.025E+03	 2.314E+02	 1.459E+04	-2.336E+01	 3.051E+02	 2.897E+00	 2.600E+00
  70.150	 5.890E+00	-5.171E-01	 9.313E-01	 7.722E+01	 5.096E+01	 1.591E+02	-9.519E+02	 2.318E+03	 4.953E+01	 2.272E+03	-1.056E+03	 1.697E+02	 1.204E+01	 1.826E+02	 2.266E-01	-2.025E+03	 2.397E+02	 1.475E+04	-7.309E+01	 3.053E+02	 2.898E+00	 2.600E+00
  70.200	 5.433E+00	-6.805E-01	 8.516E-01	 7.585E+01	 4.805E+01	 1.560E+02	-9.010E+02	 2.305E+03	 4.710E+01	 2.262E+03	-1.005E+03	 1.676E+02	 1.204E+01	 1.850E+02	 3.989E-02	-2.024E+03	 2.463E+02	 1.497E+04	-8.355E+01	 3.057E+02	 2.901E+00	 2.600E+00
  70.250	 5.517E+00	-9.265E-01	 1.035E+00	 7.636E+01	 4.510E+01	 1.527E+02	-8.447E+02	 2.305E+03	 4.619E+01	 2.264E+03	-9.484E+02	 1.665E+02	 1.205E+01	 1.918E+02	 1.135E-01	-2.024E+03	 2.455E+02	 1.528E+04	-4.392E+01	 3.059E+02	 2.902E+00	 2.600E+00
  70.300	 5.262E+00	-1.218E+00	 1.027E+00	 6.938E+01	 4.427E+01	 1.496E+02	-7.989E+02	 2.238E+03	 4.228E+01	 2.200E+03	-8.996E+02	 1.658E+02	 1.205E+01	 1.943E+02	 5.767E-01	-2.025E+03	 2.352E+02	 1.552E+04	 2.808E+01	 3.062E+02	 2.904E+00	 2.600E+00
  70.350	 5.109E+00	-1.160E+00	 1.029E+00	 6.977E+01	 4.112E+01	 1.462E+02	-7.410E+02	 2.218E+03	 4.183E+01	 2.182E+03	-8.409E+02	 1.665E+02	 1.205E+01	 1.990E+02	 4.762E-01	-2.026E+03	 2.339E+02	 1.579E+04	 7.999E+01	 3.063E+02	 2.905E+00	 2.600E+00
  70.400	 5.028E+00	-1.194E+00	 9.591E-01	 6.433E+01	 3.818E+01	 1.432E+02	-6.910E+02	 2.132E+03	 3.835E+01	 2.099E+03	-7.870E+02	 1.647E+02	 1.205E+01	 1.990E+02	 2.686E-01	-2.026E+03	 2.349E+02	 1.597E+04	 1.426E+02	 3.063E+02	 2.904E+00	 2.600E+00
  70.450	 5.295E+00	-1.284E+00	 7.885E-01	 6.769E+01	 3.534E+01	 1.403E+02	-6.332E+02	 2.138E+03	 3.913E+01	 2.107E+03	-7.296E+02	 1.727E+02	 1.205E+01	 2.040E+02	 4.268E-02	-2.025E+03	 2.364E+02	 1.624E+04	 1.392E+02	 3.061E+02	 2.903E+00	 2.600E+00
  70.500	 5.154E+00	-1.356E+00	 6.523E-01	 6.196E+01	 3.209E+01	 1.378E+02	-5.787E+02	 2.049E+03	 3.519E+01	 2.021E+03	-6.711E+02	 1.660E+02	 1.204E+01	 2.089E+02	-3.364E-01	-2.026E+03	 2.388E+02	 1.652E+04	 2.279E+02	 3.057E+02	 2.901E+00	 2.600E+00
  70.550	 5.049E+00	-1.248E+00	 1.087E+00	 5.855E+01	 2.955E+01	 1.353E+02	-5.267E+02	 1.997E+03	 3.317E+01	 1.971E+03	-6.167E+02	 1.644E+02	 1.204E+01	 2.139E+02	-6.693E-02	-2.028E+03	 2.253E+02	 1.677E+04	 3.082E+02	 3.054E+02	 2.899E+00	 2.600E+00
  70.600	 5.037E+00	-1.220E+00	 8.091E-01	 6.196E+01	 2.492E+01	 1.335E+02	-4.613E+02	 2.001E+03	 3.315E+01	 1.978E+03	-5.516E+02	 1.646E+02	 1.204E+01	 2.193E+02	 1.212E-01	-2.026E+03	 2.088E+02	 1.699E+04	 2.500E+02	 3.052E+02	 2.898E+00	 2.600E+00
  70.650	 4.959E+00	-1.387E+00	 6.879E-01	 5.709E+01	 2.289E+01	 1.315E+02	-4.061E+02	 1.981E+03	 2.982E+01	 1.960E+03	-4.955E+02	 1.576E+02	 1.204E+01	 2.195E+02	 7.191E-01	-2.028E+03	 1.808E+02	 1.706E+04	 2.254E+02	 3.052E+02	 2.897E+00	 2.600E+00
  70.700	 4.864E+00	-1.167E+00	 7.392E-01	 6.435E+01	 1.899E+01	 1.299E+02	-3.373E+02	 2.082E+03	 3.134E+01	 2.064E+03	-4.313E+02	 1.609E+02	 1.203E+01	 2.196E+02	 1.089E+00	-2.026E+03	 1.549E+02	 1.704E+04	 7.647E+01	 3.052E+02	 2.897E+00	 2.600E+00
  70.750	 5.022E+00	-1.269E+00	 6.432E-01	 6.667E+01	 1.450E+01	 1.294E+02	-2.697E+02	 2.124E+03	 2.924E+01	 2.109E+03	-3.658E+02	 1.532E+02	 1.204E+01	 2.147E+02	 1.747E+00	-2.026E+03	 1.232E+02	 1.685E+04	 5.809E+01	 3.053E+02	 2.898E+00	 2.600E+00
  70.800	 5.232E+00	-1.325E+00	 7.196E-01	 6.687E+01	 1.235E+01	 1.285E+02	-2.055E+02	 2.195E+03	 2.730E+01	 2.183E+03	-3.049E+02	 1.531E+02	 1.204E+01	 2.063E+02	 2.070E+00	-2.027E+03	 9.893E+01	 1.653E+04	 7.313E+01	 3.054E+02	 2.899E+00	 2.600E+00
  70.850	 5.114E+00	-1.351E+00	 5.103E-01	 7.203E+01	 7.620E+00	 1.280E+02	-1.329E+02	 2.278E+03	 2.662E+01	 2.269E+03	-2.361E+02	 1.563E+02	 1.204E+01	 1.989E+02	 2.145E+00	-2.024E+03	 8.006E+01	 1.621E+04	 1.218E+01	 3.057E+02	 2.901E+00	 2.600E+00
  70.900	 5.016E+00	-1.209E+00	 5.021E-01	 7.628E+01	 2.718E+00	 1.277E+02	-5.514E+01	 2.347E+03	 2.581E+01	 2.342E+03	-1.615E+02	 1.586E+02	 1.205E+01	 1.926E+02	 2.199E+00	-2.023E+03	 6.133E+01	 1.590E+04	 6.281E+01	 3.059E+02	 2.902E+00	 2.600E+00
  70.950	 5.097E+00	-1.342E+00	 5.047E-01	 7.486E+01	-7.673E-03	 1.273E+02	 1.757E+01	 2.390E+03	 2.263E+01	 2.389E+03	-9.087E+01	 1.570E+02	 1.205E+01	 1.891E+02	 2.451E+00	-2.026E+03	 3.897E+01	 1.567E+04	 9.709E+01	 3.063E+02	 2.904E+00	 2.600E+00
  71.000	 5.041E+00	-1.698E+00	 4.013E-01	 7.641E+01	-4.978E+00	 1.269E+02	 9.457E+01	 2.415E+03	 2.075E+01	 2.417E+03	-1.508E+01	 1.624E+02	 1.205E+01	 1.876E+02	 2.677E+00	-2.027E+03	 1.702E+01	 1.550E+04	 1.841E+02	 3.067E+02	 2.907E+00	 2.600E+00
  71.050	 5.116E+00	-1.689E+00	 3.031E-01	 7.651E+01	-9.170E+00	 1.266E+02	 1.754E+02	 2.435E+03	 1.824E+01	 2.441E+03	 6.471E+01	 1.622E+02	 1.206E+01	 1.877E+02	 3.235E+00	-2.029E+03	-1.072E+01	 1.537E+04	 2.876E+02	 3.069E+02	 2.908E+00	 2.600E+00
  71.100	 4.871E+00	-1.726E+00	 4.278E-01	 7.384E+01	-1.293E+01	 1.263E+02	 2.535E+02	 2.419E+03	 1.487E+01	 2.428E+03	 1.435E+02	 1.601E+02	 1.206E+01	 1.873E+02	 3.425E+00	-2.031E+03	-2.953E+01	 1.524E+04	 3.311E+02	 3.070E+02	 2.909E+00	 2.600E+00
  71.150	 5.037E+00	-1.642E+00	 4.971E-01	 7.323E+01	-1.672E+01	 1.265E+02	 3.351E+02	 2.416E+03	 1.228E+01	 2.429E+03	 2.252E+02	 1.675E+02	 1.206E+01	 1.864E+02	 3.377E+00	-2.030E+03	-4.240E+01	 1.511E+04	 3.981E+02	 3.072E+02	 2.910E+00	 2.600E+00
  71.200	 5.068E+00	-1.668E+00	 5.500E-01	 7.082E+01	-2.087E+01	 1.268E+02	 4.156E+02	 2.393E+03	 8.144E+00	 2.409E+03	 3.067E+02	 1.687E+02	 1.207E+01	 1.857E+02	 3.139E+00	-2.030E+03	-5.252E+01	 1.498E+04	 3.758E+02	 3.075E+02	 2.912E+00	 2.600E+00
  71.250	 5.130E+00	-1.379E+00	 3.203E-01	 7.007E+01	-2.450E+01	 1.275E+02	 5.050E+02	 2.402E+03	 5.083E+00	 2.422E+03	 3.955E+02	 1.679E+02	 1.207E+01	 1.859E+02	 3.271E+00	-2.032E+03	-7.099E+01	 1.488E+04	 4.256E+02	 3.076E+02	 2.913E+00	 2.600E+00
  71.300	 5.140E+00	-1.388E+00	 9.846E-02	 7.095E+01	-2.976E+01	 1.283E+02	 5.937E+02	 2.407E+03	 1.609E+00	 2.431E+03	 4.839E+02	 1.658E+02	 1.207E+01	 1.862E+02	 3.541E+00	-2.032E+03	-9.623E+01	 1.477E+04	 4.065E+02	 3.078E+02	 2.914E+00	 2.600E+00
  71.350	 5.044E+00	-1.390E+00	 3.778E-01	 7.211E+01	-3.326E+01	 1.291E+02	 6.819E+02	 2.448E+03	-8.616E-01	 2.477E+03	 5.702E+02	 1.644E+02	 1.207E+01	 1.860E+02	 4.281E+00	-2.031E+03	-1.335E+02	 1.466E+04	 3.978E+02	 3.082E+02	 2.916E+00	 2.600E+00
  71.400	 5.180E+00	-1.308E+00	 1.489E-01	 7.073E+01	-3.668E+01	 1.314E+02	 7.557E+02	 2.446E+03	-6.158E+00	 2.478E+03	 6.439E+02	 1.698E+02	 1.208E+01	 1.793E+02	 5.235E+00	-2.032E+03	-1.754E+02	 1.442E+04	 4.545E+02	 3.087E+02	 2.919E+00	 2.600E+00
  71.450	 5.145E+00	-1.424E+00	 3.527E-01	 7.835E+01	-4.215E+01	 1.324E+02	 8.424E+02	 2.521E+03	-5.852E+00	 2.556E+03	 7.272E+02	 1.748E+02	 1.209E+01	 1.786E+02	 5.489E+00	-2.031E+03	-2.028E+02	 1.429E+04	 4.498E+02	 3.091E+02	 2.922E+00	 2.600E+00
  71.500	 5.185E+00	-1.289E+00	 1.552E-01	 7.377E+01	-4.475E+01	 1.348E+02	 9.121E+02	 2.498E+03	-1.143E+01	 2.537E+03	 7.978E+02	 1.660E+02	 1.209E+01	 1.750E+02	 5.415E+00	-2.031E+03	-2.207E+02	 1.414E+04	 4.312E+02	 3.095E+02	 2.925E+00	 2.600E+00
  71.550	 5.082E+00	-1.360E+00	 1.819E-01	 7.343E+01	-4.814E+01	 1.373E+02	 9.758E+02	 2.488E+03	-1.469E+01	 2.530E+03	 8.619E+02	 1.684E+02	 1.210E+01	 1.727E+02	 5.305E+00	-2.030E+03	-2.367E+02	 1.406E+04	 4.011E+02	 3.098E+02	 2.927E+00	 2.600E+00
  71.600	 4.883E+00	-1.278E+00	 1.254E-01	 7.655E+01	-5.215E+01	 1.388E+02	 1.044E+03	 2.516E+03	-1.479E+01	 2.561E+03	 9.283E+02	 1.668E+02	 1.210E+01	 1.775E+02	 5.361E+00	-2.030E+03	-2.568E+02	 1.415E+04	 3.631E+02	 3.100E+02	 2.928E+00	 2.600E+00
  71.650	 4.767E+00	-1.047E+00	 1.204E-01	 7.478E+01	-5.509E+01	 1.414E+02	 1.095E+03	 2.489E+03	-1.803E+01	 2.537E+03	 9.813E+02	 1.640E+02	 1.210E+01	 1.770E+02	 5.927E+00	-2.031E+03	-2.893E+02	 1.416E+04	 3.372E+02	 3.101E+02	 2.929E+00	 2.600E+00
  71.700	 4.555E+00	-1.124E+00	 2.823E-01	 7.397E+01	-5.817E+01	 1.440E+02	 1.141E+03	 2.453E+03	-1.996E+01	 2.502E+03	 1.028E+03	 1.628E+02	 1.210E+01	 1.781E+02	 6.616E+00	-2.030E+03	-3.271E+02	 1.420E+04	 2.353E+02	 3.102E+02	 2.929E+00	 2.600E+00
  71.750	 4.674E+00	-1.262E+00	 1.147E-01	 7.309E+01	-5.960E+01	 1.464E+02	 1.177E+03	 2.439E+03	-2.060E+01	 2.490E+03	 1.065E+03	 1.630E+02	 1.210E+01	 1.750E+02	 7.559E+00	-2.027E+03	-3.689E+02	 1.416E+04	 2.189E+02	 3.105E+02	 2.931E+00	 2.600E+00
  71.800	 4.710E+00	-1.308E+00	 2.372E-01	 7.213E+01	-6.216E+01	 1.498E+02	 1.211E+03	 2.400E+03	-2.200E+01	 2.452E+03	 1.100E+03	 1.587E+02	 1.211E+01	 1.725E+02	 8.043E+00	-2.028E+03	-3.982E+02	 1.415E+04	 1.708E+02	 3.107E+02	 2.932E+00	 2.600E+00
  71.850	 4.717E+00	-9.827E-01	 7.850E-02	 7.069E+01	-6.228E+01	 1.530E+02	 1.226E+03	 2.382E+03	-2.231E+01	 2.435E+03	 1.117E+03	 1.657E+02	 1.211E+01	 1.725E+02	 8.302E+00	-2.024E+03	-4.171E+02	 1.425E+04	 1.342E+02	 3.112E+02	 2.935E+00	 2.600E+00
  71.900	 5.034E+00	-1.317E+00	-1.680E-02	 7.330E+01	-6.489E+01	 1.564E+02	 1.244E+03	 2.371E+03	-2.102E+01	 2.425E+03	 1.135E+03	 1.722E+02	 1.212E+01	 1.791E+02	 8.069E+00	-2.026E+03	-4.217E+02	 1.454E+04	 9.668E+01	 3.115E+02	 2.938E+00	 2.600E+00
  71.950	 4.895E+00	-1.096E+00	-4.024E-01	 7.305E+01	-6.617E+01	 1.602E+02	 1.255E+03	 2.349E+03	-2.044E+01	 2.403E+03	 1.148E+03	 1.703E+02	 1.212E+01	 1.867E+02	 8.145E+00	-2.027E+03	-4.289E+02	 1.489E+04	 1.215E+02	 3.118E+02	 2.939E+00	 2.600E+00
  72.000	 4.806E+00	-1.451E+00	-1.182E-01	 7.659E+01	-6.780E+01	 1.637E+02	 1.267E+03	 2.363E+03	-1.741E+01	 2.418E+03	 1.158E+03	 1.719E+02	 1.212E+01	 1.940E+02	 8.478E+00	-2.028E+03	-4.393E+02	 1.524E+04	 1.790E+02	 3.119E+02	 2.940E+00	 2.600E+00
  72.050	 4.807E+00	-1.123E+00	-4.791E-01	 7.026E+01	-6.650E+01	 1.684E+02	 1.258E+03	 2.298E+03	-1.973E+01	 2.353E+03	 1.153E+03	 1.679E+02	 1.212E+01	 1.973E+02	 8.545E+00	-2.025E+03	-4.430E+02	 1.550E+04	 1.244E+02	 3.119E+02	 2.940E+00	 2.600E+00
  72.100	 4.738E+00	-1.165E+00	-3.871E-01	 7.288E+01	-6.766E+01	 1.725E+02	 1.257E+03	 2.297E+03	-1.822E+01	 2.351E+03	 1.152E+03	 1.697E+02	 1.212E+01	 1.972E+02	 8.879E+00	-2.025E+03	-4.469E+02	 1.565E+04	 1.575E+02	 3.117E+02	 2.939E+00	 2.600E+00
  72.150	 4.883E+00	-1.302E+00	-1.849E-01	 7.063E+01	-6.665E+01	 1.768E+02	 1.248E+03	 2.263E+03	-1.851E+01	 2.317E+03	 1.144E+03	 1.680E+02	 1.212E+01	 1.987E+02	 8.664E+00	-2.023E+03	-4.337E+02	 1.583E+04	 1.550E+02	 3.114E+02	 2.937E+00	 2.600E+00
  72.200	 4.822E+00	-1.306E+00	-1.085E-01	 7.088E+01	-6.735E+01	 1.812E+02	 1.241E+03	 2.228E+03	-1.848E+01	 2.282E+03	 1.139E+03	 1.650E+02	 1.211E+01	 2.011E+02	 8.382E+00	-2.024E+03	-4.118E+02	 1.603E+04	 1.510E+02	 3.111E+02	 2.935E+00	 2.600E+00
  72.250	 4.795E+00	-1.312E+00	-1.793E-01	 7.101E+01	-6.692E+01	 1.852E+02	 1.233E+03	 2.198E+03	-1.694E+01	 2.252E+03	 1.132E+03	 1.660E+02	 1.211E+01	 2.056E+02	 7.775E+00	-2.025E+03	-3.784E+02	 1.627E+04	 1.268E+02	 3.108E+02	 2.933E+00	 2.600E+00
  72.300	 4.957E+00	-1.338E+00	-2.742E-01	 7.137E+01	-6.638E+01	 1.896E+02	 1.227E+03	 2.174E+03	-1.577E+01	 2.228E+03	 1.127E+03	 1.665E+02	 1.211E+01	 2.122E+02	 7.478E+00	-2.024E+03	-3.469E+02	 1.652E+04	 1.195E+02	 3.107E+02	 2.932E+00	 2.600E+00
  72.350	 4.835E+00	-1.327E+00	-3.476E-01	 6.570E+01	-6.648E+01	 1.936E+02	 1.215E+03	 2.068E+03	-1.733E+01	 2.120E+03	 1.120E+03	 1.548E+02	 1.211E+01	 2.127E+02	 7.258E+00	-2.026E+03	-3.133E+02	 1.660E+04	 6.093E+01	 3.105E+02	 2.931E+00	 2.600E+00
  72.400	 4.860E+00	-1.371E+00	-3.250E-01	 6.439E+01	-6.521E+01	 1.974E+02	 1.201E+03	 2.023E+03	-1.610E+01	 2.075E+03	 1.108E+03	 1.570E+02	 1.211E+01	 2.125E+02	 6.735E+00	-2.026E+03	-2.686E+02	 1.658E+04	 4.368E+01	 3.105E+02	 2.931E+00	 2.600E+00
  72.450	 4.673E+00	-1.375E+00	-6.276E-01	 5.973E+01	-6.382E+01	 2.012E+02	 1.183E+03	 1.949E+03	-1.681E+01	 2.000E+03	 1.094E+03	 1.515E+02	 1.210E+01	 2.058E+02	 6.121E+00	-2.026E+03	-2.145E+02	 1.639E+04	 1.251E+01	 3.105E+02	 2.931E+00	 2.600E+00
  72.500	 4.662E+00	-1.362E+00	-6.300E-01	 5.717E+01	-6.261E+01	 2.049E+02	 1.164E+03	 1.900E+03	-1.706E+01	 1.951E+03	 1.077E+03	 1.477E+02	 1.210E+01	 1.992E+02	 5.506E+00	-2.026E+03	-1.520E+02	 1.616E+04	 2.765E+01	 3.104E+02	 2.930E+00	 2.600E+00
  72.550	 4.572E+00	-1.364E+00	-3.474E-01	 5.540E+01	-6.125E+01	 2.087E+02	 1.140E+03	 1.863E+03	-1.728E+01	 1.913E+03	 1.055E+03	 1.516E+02	 1.210E+01	 1.940E+02	 4.111E+00	-2.024E+03	-6.850E+01	 1.596E+04	-6.213E+00	 3.104E+02	 2.931E+00	 2.600E+00
  72.600	 4.686E+00	-1.139E+00	-3.799E-01	 5.982E+01	-6.107E+01	 2.122E+02	 1.127E+03	 1.895E+03	-1.397E+01	 1.944E+03	 1.040E+03	 1.535E+02	 1.210E+01	 1.922E+02	 3.214E+00	-2.027E+03	 9.456E+00	 1.583E+04	 7.208E+01	 3.105E+02	 2.931E+00	 2.600E+00
  72.650	 4.569E+00	-1.370E+00	-5.189E-01	 6.221E+01	-5.854E+01	 2.156E+02	 1.103E+03	 1.951E+03	-1.197E+01	 1.999E+03	 1.014E+03	 1.608E+02	 1.211E+01	 1.916E+02	 1.939E+00	-2.026E+03	 9.560E+01	 1.574E+04	 1.096E+02	 3.105E+02	 2.931E+00	 2.600E+00
  72.700	 4.443E+00	-1.388E+00	-1.065E-01	 6.265E+01	-5.702E+01	 2.196E+02	 1.076E+03	 1.977E+03	-1.287E+01	 2.024E+03	 9.856E+02	 1.640E+02	 1.211E+01	 1.915E+02	 6.605E-01	-2.026E+03	 1.822E+02	 1.566E+04	 1.115E+02	 3.106E+02	 2.932E+00	 2.600E+00
  72.750	 4.487E+00	-1.402E+00	 9.238E-03	 6.653E+01	-5.602E+01	 2.227E+02	 1.051E+03	 2.036E+03	-1.164E+01	 2.082E+03	 9.575E+02	 1.636E+02	 1.211E+01	 1.894E+02	-2.726E-02	-2.027E+03	 2.578E+02	 1.555E+04	 1.367E+02	 3.107E+02	 2.932E+00	 2.600E+00
  72.800	 4.365E+00	-1.391E+00	-2.451E-01	 6.511E+01	-5.339E+01	 2.256E+02	 1.019E+03	 2.062E+03	-1.261E+01	 2.106E+03	 9.241E+02	 1.576E+02	 1.211E+01	 1.909E+02	-1.232E+00	-2.029E+03	 3.419E+02	 1.551E+04	 1.702E+02	 3.107E+02	 2.933E+00	 2.600E+00
  72.850	 4.525E+00	-1.308E+00	-2.908E-01	 6.968E+01	-5.141E+01	 2.283E+02	 9.878E+02	 2.120E+03	-9.852E+00	 2.162E+03	 8.907E+02	 1.603E+02	 1.211E+01	 1.920E+02	-2.519E+00	-2.029E+03	 4.239E+02	 1.548E+04	 1.607E+02	 3.107E+02	 2.933E+00	 2.600E+00
  72.900	 4.564E+00	-1.465E+00	-2.141E-01	 7.081E+01	-4.960E+01	 2.302E+02	 9.416E+02	 2.140E+03	-9.161E+00	 2.180E+03	 8.436E+02	 1.605E+02	 1.211E+01	 1.970E+02	-3.765E+00	-2.032E+03	 4.968E+02	 1.552E+04	 1.369E+02	 3.107E+02	 2.932E+00	 2.600E+00
  72.950	 4.563E+00	-1.413E+00	-5.504E-01	 7.294E+01	-4.678E+01	 2.319E+02	 8.931E+02	 2.182E+03	-6.985E+00	 2.220E+03	 7.932E+02	 1.596E+02	 1.211E+01	 2.001E+02	-4.310E+00	-2.035E+03	 5.435E+02	 1.549E+04	 2.028E+02	 3.110E+02	 2.934E+00	 2.600E+00
  73.000	 4.417E+00	-1.234E+00	-6.181E-01	 6.845E+01	-4.157E+01	 2.338E+02	 8.284E+02	 2.178E+03	-6.987E+00	 2.213E+03	 7.288E+02	 1.576E+02	 1.212E+01	 1.996E+02	-4.752E+00	-2.034E+03	 5.746E+02	 1.534E+04	 1.774E+02	 3.115E+02	 2.938E+00	 2.600E+00
  73.050	 4.458E+00	-1.429E+00	-4.080E-01	 7.085E+01	-3.794E+01	 2.354E+02	 7.599E+02	 2.220E+03	-3.953E+00	 2.252E+03	 6.584E+02	 1.646E+02	 1.213E+01	 1.937E+02	-4.404E+00	-2.031E+03	 5.801E+02	 1.504E+04	 2.302E+02	 3.122E+02	 2.942E+00	 2.600E+00
  73.100	 4.351E+00	-1.530E+00	-4.257E-01	 7.341E+01	-3.524E+01	 2.367E+02	 6.904E+02	 2.257E+03	-1.085E+00	 2.286E+03	 5.873E+02	 1.668E+02	 1.214E+01	 1.844E+02	-4.449E+00	-2.030E+03	 5.871E+02	 1.465E+04	 2.894E+02	 3.127E+02	 2.945E+00	 2.600E+00
  73.150	 4.495E+00	-1.542E+00	-4.667E-01	 7.679E+01	-3.188E+01	 2.381E+02	 6.094E+02	 2.289E+03	 2.601E+00	 2.315E+03	 5.050E+02	 1.732E+02	 1.214E+01	 1.767E+02	-4.584E+00	-2.029E+03	 5.909E+02	 1.431E+04	 3.008E+02	 3.133E+02	 2.948E+00	 2.600E+00
  73.200	 4.312E+00	-1.432E+00	-3.495E-01	 7.778E+01	-2.775E+01	 2.391E+02	 5.285E+02	 2.305E+03	 6.580E+00	 2.327E+03	 4.234E+02	 1.724E+02	 1.215E+01	 1.745E+02	-5.079E+00	-2.030E+03	 5.945E+02	 1.415E+04	 3.830E+02	 3.135E+02	 2.950E+00	 2.600E+00
  73.250	 4.429E+00	-1.295E+00	-2.786E-01	 7.683E+01	-2.386E+01	 2.402E+02	 4.399E+02	 2.278E+03	 9.501E+00	 2.296E+03	 3.361E+02	 1.706E+02	 1.214E+01	 1.770E+02	-5.330E+00	-2.032E+03	 5.812E+02	 1.412E+04	 4.081E+02	 3.135E+02	 2.950E+00	 2.600E+00
  73.300	 4.268E+00	-1.430E+00	-1.215E-01	 7.648E+01	-1.923E+01	 2.410E+02	 3.482E+02	 2.259E+03	 1.299E+01	 2.273E+03	 2.454E+02	 1.719E+02	 1.214E+01	 1.798E+02	-4.941E+00	-2.029E+03	 5.398E+02	 1.414E+04	 3.025E+02	 3.133E+02	 2.949E+00	 2.600E+00
  73.350	 4.309E+00	-1.320E+00	-1.353E-01	 6.999E+01	-1.262E+01	 2.415E+02	 2.493E+02	 2.201E+03	 1.469E+01	 2.210E+03	 1.493E+02	 1.671E+02	 1.214E+01	 1.812E+02	-3.604E+00	-2.030E+03	 4.650E+02	 1.412E+04	 2.850E+02	 3.130E+02	 2.947E+00	 2.600E+00
  73.400	 4.479E+00	-1.742E+00	-4.735E-02	 6.804E+01	-9.227E+00	 2.418E+02	 1.579E+02	 2.137E+03	 1.723E+01	 2.142E+03	 6.075E+01	 1.637E+02	 1.214E+01	 1.783E+02	-1.923E+00	-2.028E+03	 3.741E+02	 1.401E+04	 1.826E+02	 3.129E+02	 2.946E+00	 2.600E+00
  73.450	 4.342E+00	-1.596E+00	-3.397E-01	 7.091E+01	-5.558E+00	 2.416E+02	 7.689E+01	 2.149E+03	 2.210E+01	 2.150E+03	-2.068E+01	 1.627E+02	 1.214E+01	 1.701E+02	-3.138E-01	-2.025E+03	 2.815E+02	 1.381E+04	 1.635E+02	 3.131E+02	 2.947E+00	 2.600E+00
  73.500	 4.323E+00	-1.409E+00	-1.377E-01	 6.774E+01	 1.259E+00	 2.421E+02	-2.259E+01	 2.130E+03	 2.394E+01	 2.127E+03	-1.192E+02	 1.668E+02	 1.214E+01	 1.686E+02	 8.209E-01	-2.025E+03	 1.985E+02	 1.378E+04	 1.454E+02	 3.134E+02	 2.949E+00	 2.600E+00
  73.550	 4.283E+00	-1.274E+00	-1.615E-01	 7.239E+01	 4.816E+00	 2.423E+02	-9.823E+01	 2.177E+03	 2.843E+01	 2.170E+03	-1.969E+02	 1.674E+02	 1.215E+01	 1.680E+02	 1.549E+00	-2.024E+03	 1.243E+02	 1.382E+04	 1.151E+02	 3.140E+02	 2.953E+00	 2.600E+00
  73.600	 4.176E+00	-1.185E+00	-1.077E-01	 7.083E+01	 9.662E+00	 2.432E+02	-1.872E+02	 2.164E+03	 2.938E+01	 2.153E+03	-2.852E+02	 1.687E+02	 1.216E+01	 1.755E+02	 2.057E+00	-2.026E+03	 5.195E+01	 1.408E+04	 4.821E+01	 3.146E+02	 2.957E+00	 2.600E+00
  73.650	 4.276E+00	-1.120E+00	 6.453E-02	 7.697E+01	 1.192E+01	 2.432E+02	-2.613E+02	 2.207E+03	 3.332E+01	 2.193E+03	-3.611E+02	 1.702E+02	 1.217E+01	 1.803E+02	 3.448E+00	-2.024E+03	-3.976E+01	 1.431E+04	 2.349E+01	 3.151E+02	 2.960E+00	 2.600E+00
  73.700	 4.630E+00	-1.195E+00	 5.550E-02	 7.315E+01	 1.617E+01	 2.436E+02	-3.432E+02	 2.170E+03	 3.209E+01	 2.152E+03	-4.413E+02	 1.653E+02	 1.217E+01	 1.859E+02	 5.013E+00	-2.026E+03	-1.363E+02	 1.456E+04	 5.242E+01	 3.155E+02	 2.962E+00	 2.600E+00
  73.750	 4.435E+00	-9.661E-01	 1.048E-01	 7.233E+01	 2.139E+01	 2.432E+02	-4.146E+02	 2.183E+03	 3.381E+01	 2.162E+03	-5.132E+02	 1.652E+02	 1.217E+01	 1.864E+02	 6.243E+00	-2.027E+03	-2.234E+02	 1.470E+04	 5.865E+01	 3.156E+02	 2.963E+00	 2.600E+00
  73.800	 4.459E+00	-1.110E+00	 1.166E-01	 7.134E+01	 2.391E+01	 2.423E+02	-4.883E+02	 2.128E+03	 3.419E+01	 2.104E+03	-5.843E+02	 1.659E+02	 1.217E+01	 1.887E+02	 7.462E+00	-2.027E+03	-3.025E+02	 1.486E+04	 9.027E+01	 3.154E+02	 2.962E+00	 2.600E+00
  73.850	 4.380E+00	-1.116E+00	 8.805E-02	 6.856E+01	 2.762E+01	 2.414E+02	-5.479E+02	 2.085E+03	 3.421E+01	 2.058E+03	-6.419E+02	 1.609E+02	 1.216E+01	 1.893E+02	 7.764E+00	-2.027E+03	-3.560E+02	 1.500E+04	 5.665E+01	 3.151E+02	 2.960E+00	 2.600E+00
  73.900	 4.401E+00	-1.001E+00	 1.089E-01	 7.019E+01	 3.119E+01	 2.397E+02	-5.994E+02	 2.074E+03	 3.754E+01	 2.045E+03	-6.929E+02	 1.649E+02	 1.216E+01	 1.905E+02	 7.899E+00	-2.027E+03	-3.987E+02	 1.516E+04	 6.684E+01	 3.147E+02	 2.957E+00	 2.600E+00
  73.950	 4.568E+00	-7.561E-01	 1.297E-01	 6.630E+01	 3.348E+01	 2.382E+02	-6.484E+02	 1.985E+03	 3.628E+01	 1.954E+03	-7.378E+02	 1.554E+02	 1.215E+01	 1.926E+02	 8.597E+00	-2.027E+03	-4.467E+02	 1.533E+04	 6.844E+01	 3.142E+02	 2.954E+00	 2.600E+00
  74.000	 4.386E+00	-9.628E-01	 2.530E-01	 6.114E+01	 3.816E+01	 2.358E+02	-7.083E+02	 1.913E+03	 3.640E+01	 1.879E+03	-7.944E+02	 1.585E+02	 1.215E+01	 1.944E+02	 9.573E+00	-2.029E+03	-4.947E+02	 1.547E+04	 1.187E+02	 3.139E+02	 2.952E+00	 2.600E+00
  74.050	 4.382E+00	-1.307E+00	 4.844E-02	 5.896E+01	 4.045E+01	 2.334E+02	-7.511E+02	 1.858E+03	 3.644E+01	 1.822E+03	-8.346E+02	 1.551E+02	 1.215E+01	 1.931E+02	 1.036E+01	-2.027E+03	-5.310E+02	 1.552E+04	 9.984E+01	 3.137E+02	 2.951E+00	 2.600E+00
  74.100	 4.583E+00	-1.549E+00	 1.205E-01	 5.755E+01	 4.268E+01	 2.313E+02	-7.966E+02	 1.813E+03	 3.548E+01	 1.775E+03	-8.780E+02	 1.576E+02	 1.215E+01	 1.909E+02	 1.090E+01	-2.027E+03	-5.497E+02	 1.553E+04	 1.231E+02	 3.135E+02	 2.950E+00	 2.600E+00
  74.150	 4.821E+00	-1.559E+00	-5.841E-02	 5.824E+01	 4.527E+01	 2.285E+02	-8.294E+02	 1.828E+03	 3.745E+01	 1.789E+03	-9.114E+02	 1.526E+02	 1.215E+01	 1.885E+02	 1.044E+01	-2.025E+03	-5.360E+02	 1.553E+04	 3.298E+01	 3.137E+02	 2.951E+00	 2.600E+00
  74.200	 4.701E+00	-1.601E+00	 7.919E-02	 6.013E+01	 4.756E+01	 2.259E+02	-8.700E+02	 1.844E+03	 3.841E+01	 1.803E+03	-9.528E+02	 1.581E+02	 1.215E+01	 1.881E+02	 9.971E+00	-2.027E+03	-5.078E+02	 1.557E+04	 4.427E+01	 3.137E+02	 2.951E+00	 2.600E+00
  74.250	 4.812E+00	-1.850E+00	-8.743E-02	 5.950E+01	 4.922E+01	 2.232E+02	-9.111E+02	 1.839E+03	 3.775E+01	 1.796E+03	-9.936E+02	 1.582E+02	 1.215E+01	 1.925E+02	 8.943E+00	-2.026E+03	-4.584E+02	 1.573E+04	 6.546E+01	 3.136E+02	 2.951E+00	 2.600E+00
  74.300	 4.810E+00	-1.846E+00	 1.223E-01	 6.110E+01	 5.138E+01	 2.195E+02	-9.423E+02	 1.884E+03	 4.002E+01	 1.839E+03	-1.027E+03	 1.557E+02	 1.214E+01	 1.943E+02	 8.155E+00	-2.027E+03	-4.061E+02	 1.583E+04	 3.538E+01	 3.136E+02	 2.951E+00	 2.600E+00
  74.350	 4.738E+00	-1.802E+00	 1.027E-01	 5.770E+01	 5.348E+01	 2.165E+02	-9.799E+02	 1.861E+03	 3.870E+01	 1.814E+03	-1.063E+03	 1.510E+02	 1.214E+01	 1.969E+02	 7.681E+00	-2.029E+03	-3.537E+02	 1.594E+04	 7.671E+01	 3.133E+02	 2.949E+00	 2.600E+00
  74.400	 4.721E+00	-1.852E+00	 2.218E-01	 6.789E+01	 5.324E+01	 2.129E+02	-9.972E+02	 1.970E+03	 4.366E+01	 1.923E+03	-1.086E+03	 1.600E+02	 1.214E+01	 1.970E+02	 6.876E+00	-2.026E+03	-2.897E+02	 1.598E+04	 1.811E+01	 3.130E+02	 2.947E+00	 2.600E+00
  74.450	 4.835E+00	-1.912E+00	 1.427E-01	 6.228E+01	 5.651E+01	 2.092E+02	-1.031E+03	 1.961E+03	 4.258E+01	 1.912E+03	-1.119E+03	 1.541E+02	 1.213E+01	 1.966E+02	 5.826E+00	-2.029E+03	-2.159E+02	 1.599E+04	 5.849E+01	 3.128E+02	 2.946E+00	 2.600E+00
  74.500	 4.931E+00	-1.816E+00	 2.065E-01	 6.504E+01	 5.849E+01	 2.053E+02	-1.063E+03	 2.019E+03	 4.428E+01	 1.969E+03	-1.153E+03	 1.610E+02	 1.213E+01	 1.997E+02	 4.752E+00	-2.031E+03	-1.378E+02	 1.607E+04	 3.860E+01	 3.126E+02	 2.944E+00	 2.600E+00
  74.550	 4.807E+00	-1.727E+00	 2.741E-01	 6.689E+01	 5.951E+01	 2.012E+02	-1.086E+03	 2.057E+03	 4.666E+01	 2.006E+03	-1.179E+03	 1.588E+02	 1.213E+01	 2.026E+02	 3.639E+00	-2.031E+03	-5.878E+01	 1.612E+04	 1.016E+01	 3.126E+02	 2.944E+00	 2.600E+00
  74.600	 4.750E+00	-1.953E+00	 4.913E-01	 6.845E+01	 6.054E+01	 1.972E+02	-1.107E+03	 2.101E+03	 4.794E+01	 2.049E+03	-1.201E+03	 1.587E+02	 1.214E+01	 2.040E+02	 2.645E+00	-2.030E+03	 1.562E+01	 1.612E+04	-6.607E+00	 3.130E+02	 2.947E+00	 2.600E+00
  74.650	 4.740E+00	-1.965E+00	 7.594E-01	 7.227E+01	 5.983E+01	 1.931E+02	-1.123E+03	 2.139E+03	 5.030E+01	 2.086E+03	-1.219E+03	 1.608E+02	 1.214E+01	 2.031E+02	 2.115E+00	-2.029E+03	 7.739E+01	 1.603E+04	-2.211E+01	 3.135E+02	 2.950E+00	 2.600E+00
  74.700	 4.776E+00	-2.125E+00	 8.588E-01	 6.838E+01	 6.195E+01	 1.893E+02	-1.148E+03	 2.135E+03	 5.013E+01	 2.080E+03	-1.244E+03	 1.665E+02	 1.215E+01	 1.991E+02	 1.725E+00	-2.030E+03	 1.340E+02	 1.585E+04	 8.114E+01	 3.142E+02	 2.955E+00	 2.600E+00
  74.750	 4.852E+00	-2.157E+00	 1.051E+00	 7.198E+01	 6.135E+01	 1.851E+02	-1.158E+03	 2.177E+03	 5.317E+01	 2.122E+03	-1.255E+03	 1.753E+02	 1.216E+01	 1.953E+02	 9.430E-01	-2.029E+03	 1.982E+02	 1.565E+04	 1.138E+02	 3.148E+02	 2.958E+00	 2.600E+00
  74.800	 4.742E+00	-2.067E+00	 9.181E-01	 7.054E+01	 6.087E+01	 1.815E+02	-1.160E+03	 2.174E+03	 5.374E+01	 2.119E+03	-1.257E+03	 1.749E+02	 1.217E+01	 1.907E+02	-4.390E-01	-2.028E+03	 2.734E+02	 1.545E+04	 1.575E+02	 3.152E+02	 2.961E+00	 2.600E+00
  74.850	 4.850E+00	-1.813E+00	 8.114E-01	 7.370E+01	 5.949E+01	 1.776E+02	-1.150E+03	 2.207E+03	 5.693E+01	 2.152E+03	-1.249E+03	 1.792E+02	 1.217E+01	 1.900E+02	-2.153E+00	-2.026E+03	 3.519E+02	 1.534E+04	 1.721E+02	 3.152E+02	 2.961E+00	 2.600E+00
  74.900	 4.988E+00	-1.614E+00	 5.678E-01	 6.971E+01	 6.007E+01	 1.742E+02	-1.150E+03	 2.191E+03	 5.478E+01	 2.136E+03	-1.249E+03	 1.792E+02	 1.217E+01	 1.901E+02	-2.792E+00	-2.028E+03	 4.029E+02	 1.528E+04	 2.246E+02	 3.151E+02	 2.960E+00	 2.600E+00
  74.950	 5.196E+00	-1.901E+00	 4.646E-01	 6.235E+01	 6.086E+01	 1.705E+02	-1.142E+03	 2.141E+03	 5.268E+01	 2.087E+03	-1.238E+03	 1.761E+02	 1.216E+01	 1.913E+02	-3.053E+00	-2.031E+03	 4.365E+02	 1.526E+04	 3.140E+02	 3.151E+02	 2.960E+00	 2.600E+00
  75.000	 5.273E+00	-1.807E+00	 7.266E-01	 6.565E+01	 5.796E+01	 1.674E+02	-1.104E+03	 2.175E+03	 5.335E+01	 2.122E+03	-1.201E+03	 1.737E+02	 1.216E+01	 1.907E+02	-3.266E+00	-2.029E+03	 4.594E+02	 1.521E+04	 2.491E+02	 3.150E+02	 2.959E+00	 2.600E+00
  75.050	 5.285E+00	-1.729E+00	 4.286E-01	 6.408E+01	 5.742E+01	 1.642E+02	-1.071E+03	 2.190E+03	 5.192E+01	 2.139E+03	-1.169E+03	 1.710E+02	 1.216E+01	 1.880E+02	-2.551E+00	-2.029E+03	 4.578E+02	 1.511E+04	 2.024E+02	 3.150E+02	 2.959E+00	 2.600E+00
  75.100	 5.001E+00	-1.695E+00	 5.388E-01	 6.647E+01	 5.416E+01	 1.612E+02	-1.024E+03	 2.225E+03	 5.100E+01	 2.177E+03	-1.124E+03	 1.686E+02	 1.217E+01	 1.855E+02	-2.282E+00	-2.027E+03	 4.602E+02	 1.502E+04	 1.659E+02	 3.154E+02	 2.962E+00	 2.600E+00
  75.150	 5.349E+00	-1.648E+00	 2.492E-01	 7.142E+01	 5.167E+01	 1.580E+02	-9.699E+02	 2.302E+03	 5.172E+01	 2.256E+03	-1.073E+03	 1.722E+02	 1.218E+01	 1.829E+02	-2.340E+00	-2.026E+03	 4.679E+02	 1.494E+04	 2.273E+01	 3.160E+02	 2.966E+00	 2.600E+00
  75.200	 5.356E+00	-1.537E+00	 1.959E-01	 7.253E+01	 4.891E+01	 1.554E+02	-9.129E+02	 2.334E+03	 5.036E+01	 2.290E+03	-1.018E+03	 1.665E+02	 1.218E+01	 1.838E+02	-2.474E+00	-2.027E+03	 4.756E+02	 1.496E+04	 3.971E+00	 3.167E+02	 2.970E+00	 2.600E+00
  75.250	 5.134E+00	-1.356E+00	 1.120E-01	 7.530E+01	 4.599E+01	 1.518E+02	-8.511E+02	 2.381E+03	 5.089E+01	 2.339E+03	-9.582E+02	 1.670E+02	 1.219E+01	 1.857E+02	-2.931E+00	-2.027E+03	 4.867E+02	 1.501E+04	-5.205E+01	 3.171E+02	 2.972E+00	 2.600E+00
  75.300	 5.199E+00	-1.651E+00	 3.169E-01	 7.293E+01	 4.338E+01	 1.496E+02	-7.947E+02	 2.358E+03	 4.690E+01	 2.320E+03	-9.009E+02	 1.678E+02	 1.219E+01	 1.854E+02	-2.827E+00	-2.027E+03	 4.824E+02	 1.505E+04	-8.195E+01	 3.174E+02	 2.974E+00	 2.600E+00
  75.350	 5.258E+00	-1.482E+00	 3.695E-01	 7.705E+01	 3.862E+01	 1.466E+02	-7.238E+02	 2.376E+03	 4.687E+01	 2.341E+03	-8.309E+02	 1.717E+02	 1.220E+01	 1.886E+02	-2.608E+00	-2.025E+03	 4.699E+02	 1.516E+04	-8.221E+01	 3.177E+02	 2.976E+00	 2.600E+00
  75.400	 5.028E+00	-1.589E+00	 6.318E-01	 6.549E+01	 3.746E+01	 1.441E+02	-6.684E+02	 2.266E+03	 4.058E+01	 2.234E+03	-7.705E+02	 1.662E+02	 1.220E+01	 1.871E+02	-2.026E+00	-2.028E+03	 4.471E+02	 1.521E+04	 3.116E+00	 3.176E+02	 2.976E+00	 2.600E+00
  75.450	 5.142E+00	-1.255E+00	 4.593E-01	 6.951E+01	 3.281E+01	 1.411E+02	-5.925E+02	 2.278E+03	 4.079E+01	 2.248E+03	-6.952E+02	 1.737E+02	 1.220E+01	 1.924E+02	-2.048E+00	-2.028E+03	 4.340E+02	 1.540E+04	-2.650E+01	 3.176E+02	 2.975E+00	 2.600E+00
  75.500	 5.086E+00	-1.220E+00	 3.489E-01	 6.565E+01	 2.962E+01	 1.386E+02	-5.212E+02	 2.229E+03	 3.769E+01	 2.203E+03	-6.217E+02	 1.712E+02	 1.220E+01	 1.958E+02	-1.992E+00	-2.031E+03	 4.180E+02	 1.555E+04	 2.891E+01	 3.176E+02	 2.975E+00	 2.600E+00
  75.550	 4.797E+00	-1.188E+00	 5.229E-01	 6.294E+01	 2.638E+01	 1.365E+02	-4.478E+02	 2.201E+03	 3.438E+01	 2.178E+03	-5.472E+02	 1.681E+02	 1.220E+01	 2.002E+02	-1.708E+00	-2.032E+03	 3.964E+02	 1.572E+04	 7.579E+01	 3.176E+02	 2.975E+00	 2.600E+00
  75.600	 4.615E+00	-1.394E+00	 6.225E-01	 6.446E+01	 2.130E+01	 1.353E+02	-3.684E+02	 2.199E+03	 3.128E+01	 2.180E+03	-4.678E+02	 1.703E+02	 1.220E+01	 2.028E+02	-1.494E+00	-2.030E+03	 3.734E+02	 1.583E+04	 9.089E+01	 3.175E+02	 2.975E+00	 2.600E+00
  75.650	 4.834E+00	-1.246E+00	 5.800E-01	 6.507E+01	 1.753E+01	 1.336E+02	-2.852E+02	 2.213E+03	 3.055E+01	 2.198E+03	-3.853E+02	 1.666E+02	 1.220E+01	 2.014E+02	-1.203E+00	-2.030E+03	 3.456E+02	 1.581E+04	 9.175E+01	 3.175E+02	 2.975E+00	 2.600E+00
  75.700	 4.865E+00	-1.289E+00	 4.894E-01	 6.518E+01	 1.321E+01	 1.326E+02	-2.090E+02	 2.227E+03	 2.711E+01	 2.216E+03	-3.098E+02	 1.642E+02	 1.220E+01	 1.970E+02	-5.644E-01	-2.030E+03	 3.097E+02	 1.570E+04	 1.109E+02	 3.175E+02	 2.975E+00	 2.600E+00
[...]
 596.100	 4.463E+00	 3.936E-01	 4.938E-01	 6.267E+01	-3.478E+01	 1.784E+02	 6.410E+02	 1.858E+03	 3.954E+00	 1.886E+03	 5.561E+02	 1.146E+02	 1.002E+01	 1.495E+02	 1.545E+01	-2.030E+03	-1.105E+03	 1.115E+04	 5.409E+02	 1.760E+02	 2.007E+00	 2.600E+00
 596.150	 4.724E+00	 1.726E-01	 7.722E-01	 6.409E+01	-3.206E+01	 1.804E+02	 5.887E+02	 1.858E+03	 5.661E+00	 1.882E+03	 5.039E+02	 1.194E+02	 1.002E+01	 1.459E+02	 1.658E+01	-2.029E+03	-1.178E+03	 1.109E+04	 5.194E+02	 1.762E+02	 2.009E+00	 2.600E+00
 596.200	 4.614E+00	-6.219E-02	 7.163E-01	 6.352E+01	-2.962E+01	 1.822E+02	 5.379E+02	 1.823E+03	 6.856E+00	 1.845E+03	 4.547E+02	 1.186E+02	 1.002E+01	 1.441E+02	 1.720E+01	-2.028E+03	-1.228E+03	 1.109E+04	 4.126E+02	 1.763E+02	 2.010E+00	 2.600E+00
 596.250	 4.629E+00	 1.433E-01	 8.701E-01	 6.019E+01	-2.703E+01	 1.840E+02	 4.841E+02	 1.764E+03	 6.009E+00	 1.784E+03	 4.036E+02	 1.130E+02	 1.003E+01	 1.470E+02	 1.768E+01	-2.030E+03	-1.261E+03	 1.120E+04	 3.776E+02	 1.765E+02	 2.011E+00	 2.600E+00
 596.300	 4.822E+00	 1.530E-01	 5.504E-01	 6.172E+01	-2.437E+01	 1.855E+02	 4.358E+02	 1.766E+03	 7.481E+00	 1.784E+03	 3.552E+02	 1.166E+02	 1.003E+01	 1.514E+02	 1.766E+01	-2.031E+03	-1.271E+03	 1.135E+04	 3.465E+02	 1.765E+02	 2.012E+00	 2.600E+00
 596.350	 4.796E+00	-1.415E-01	 7.309E-01	 5.918E+01	-2.052E+01	 1.869E+02	 3.852E+02	 1.731E+03	 7.841E+00	 1.746E+03	 3.063E+02	 1.131E+02	 1.003E+01	 1.560E+02	 1.743E+01	-2.031E+03	-1.266E+03	 1.149E+04	 2.580E+02	 1.765E+02	 2.011E+00	 2.600E+00
 596.400	 4.857E+00	 1.603E-02	 8.597E-01	 6.013E+01	-1.853E+01	 1.875E+02	 3.339E+02	 1.704E+03	 9.818E+00	 1.717E+03	 2.562E+02	 1.162E+02	 1.003E+01	 1.575E+02	 1.732E+01	-2.031E+03	-1.252E+03	 1.152E+04	 2.153E+02	 1.763E+02	 2.010E+00	 2.600E+00
 596.450	 4.698E+00	-1.739E-01	 8.421E-01	 5.679E+01	-1.428E+01	 1.882E+02	 2.814E+02	 1.667E+03	 1.033E+01	 1.678E+03	 2.055E+02	 1.149E+02	 1.002E+01	 1.553E+02	 1.677E+01	-2.029E+03	-1.220E+03	 1.143E+04	 1.536E+02	 1.763E+02	 2.010E+00	 2.600E+00
 596.500	 5.038E+00	-5.771E-02	 1.176E+00	 4.940E+01	-1.054E+01	 1.888E+02	 2.204E+02	 1.571E+03	 8.067E+00	 1.579E+03	 1.489E+02	 1.071E+02	 1.002E+01	 1.500E+02	 1.646E+01	-2.031E+03	-1.183E+03	 1.123E+04	 2.041E+02	 1.763E+02	 2.010E+00	 2.600E+00
 596.550	 4.942E+00	 7.827E-02	 8.182E-01	 5.238E+01	-8.414E+00	 1.887E+02	 1.692E+02	 1.590E+03	 1.036E+01	 1.596E+03	 9.687E+01	 1.135E+02	 1.003E+01	 1.429E+02	 1.594E+01	-2.031E+03	-1.131E+03	 1.099E+04	 2.115E+02	 1.764E+02	 2.011E+00	 2.600E+00
 596.600	 5.114E+00	 1.351E-01	 8.057E-01	 5.531E+01	-5.574E+00	 1.885E+02	 1.206E+02	 1.620E+03	 1.375E+01	 1.623E+03	 4.698E+01	 1.168E+02	 1.003E+01	 1.377E+02	 1.509E+01	-2.029E+03	-1.064E+03	 1.080E+04	 1.861E+02	 1.766E+02	 2.012E+00	 2.600E+00
 596.650	 4.939E+00	-1.370E-01	 7.032E-01	 5.319E+01	-1.846E+00	 1.886E+02	 5.161E+01	 1.602E+03	 1.303E+01	 1.603E+03	-2.112E+01	 1.191E+02	 1.003E+01	 1.380E+02	 1.416E+01	-2.028E+03	-9.856E+02	 1.073E+04	 2.047E+02	 1.768E+02	 2.014E+00	 2.600E+00
 596.700	 4.908E+00	-2.029E-01	 6.538E-01	 5.148E+01	 1.904E+00	 1.888E+02	-1.725E+01	 1.589E+03	 1.308E+01	 1.587E+03	-8.931E+01	 1.198E+02	 1.004E+01	 1.400E+02	 1.298E+01	-2.029E+03	-8.946E+02	 1.073E+04	 1.934E+02	 1.772E+02	 2.017E+00	 2.600E+00
 596.750	 4.759E+00	-1.358E-01	 5.816E-01	 5.298E+01	 5.423E+00	 1.882E+02	-8.097E+01	 1.625E+03	 1.516E+01	 1.619E+03	-1.546E+02	 1.213E+02	 1.005E+01	 1.393E+02	 1.171E+01	-2.029E+03	-7.945E+02	 1.068E+04	 2.236E+02	 1.776E+02	 2.019E+00	 2.600E+00
 596.800	 4.634E+00	-1.725E-01	 8.331E-01	 5.476E+01	 8.748E+00	 1.875E+02	-1.447E+02	 1.653E+03	 1.795E+01	 1.645E+03	-2.195E+02	 1.206E+02	 1.005E+01	 1.379E+02	 1.022E+01	-2.026E+03	-6.841E+02	 1.063E+04	 2.037E+02	 1.778E+02	 2.021E+00	 2.600E+00
 596.850	 4.791E+00	-3.929E-01	 5.977E-01	 5.562E+01	 1.201E+01	 1.866E+02	-2.184E+02	 1.666E+03	 1.944E+01	 1.655E+03	-2.938E+02	 1.230E+02	 1.006E+01	 1.370E+02	 8.879E+00	-2.027E+03	-5.709E+02	 1.060E+04	 2.612E+02	 1.780E+02	 2.023E+00	 2.600E+00
 596.900	 4.738E+00	-5.111E-01	 5.887E-01	 5.467E+01	 1.582E+01	 1.858E+02	-2.976E+02	 1.654E+03	 2.052E+01	 1.639E+03	-3.723E+02	 1.235E+02	 1.006E+01	 1.390E+02	 7.293E+00	-2.027E+03	-4.490E+02	 1.065E+04	 2.795E+02	 1.780E+02	 2.023E+00	 2.600E+00
 596.950	 5.008E+00	-5.890E-01	 6.590E-01	 5.244E+01	 1.974E+01	 1.843E+02	-3.684E+02	 1.643E+03	 2.184E+01	 1.625E+03	-4.425E+02	 1.153E+02	 1.005E+01	 1.399E+02	 5.661E+00	-2.029E+03	-3.236E+02	 1.071E+04	 3.130E+02	 1.780E+02	 2.023E+00	 2.600E+00
 597.000	 5.146E+00	-6.081E-01	 5.279E-01	 5.429E+01	 2.266E+01	 1.833E+02	-4.350E+02	 1.651E+03	 2.371E+01	 1.630E+03	-5.094E+02	 1.126E+02	 1.005E+01	 1.428E+02	 3.971E+00	-2.029E+03	-1.958E+02	 1.083E+04	 3.322E+02	 1.778E+02	 2.021E+00	 2.600E+00
 597.050	 5.172E+00	-4.236E-01	 5.979E-01	 5.676E+01	 2.571E+01	 1.820E+02	-5.069E+02	 1.662E+03	 2.637E+01	 1.638E+03	-5.818E+02	 1.160E+02	 1.005E+01	 1.473E+02	 2.348E+00	-2.030E+03	-7.036E+01	 1.098E+04	 3.474E+02	 1.779E+02	 2.022E+00	 2.600E+00
 597.100	 5.104E+00	-3.750E-01	 7.380E-01	 5.423E+01	 3.121E+01	 1.810E+02	-5.857E+02	 1.652E+03	 2.599E+01	 1.624E+03	-6.600E+02	 1.163E+02	 1.005E+01	 1.506E+02	 1.151E+00	-2.033E+03	 4.455E+01	 1.108E+04	 3.714E+02	 1.780E+02	 2.022E+00	 2.600E+00
 597.150	 4.779E+00	-3.687E-01	 5.843E-01	 5.192E+01	 3.472E+01	 1.796E+02	-6.546E+02	 1.615E+03	 2.646E+01	 1.583E+03	-7.272E+02	 1.147E+02	 1.006E+01	 1.512E+02	-9.495E-02	-2.034E+03	 1.569E+02	 1.110E+04	 4.134E+02	 1.782E+02	 2.024E+00	 2.600E+00
 597.200	 4.772E+00	-5.772E-01	 7.873E-01	 5.242E+01	 3.790E+01	 1.776E+02	-7.156E+02	 1.616E+03	 2.859E+01	 1.582E+03	-7.881E+02	 1.172E+02	 1.007E+01	 1.488E+02	-1.474E+00	-2.033E+03	 2.681E+02	 1.103E+04	 3.813E+02	 1.786E+02	 2.027E+00	 2.600E+00
 597.250	 4.783E+00	-7.090E-02	 7.701E-01	 5.002E+01	 3.992E+01	 1.759E+02	-7.725E+02	 1.557E+03	 2.900E+01	 1.521E+03	-8.424E+02	 1.160E+02	 1.007E+01	 1.447E+02	-3.015E+00	-2.033E+03	 3.792E+02	 1.091E+04	 4.165E+02	 1.790E+02	 2.030E+00	 2.600E+00
 597.300	 4.991E+00	-6.818E-02	 8.236E-01	 4.967E+01	 4.331E+01	 1.743E+02	-8.283E+02	 1.544E+03	 3.034E+01	 1.505E+03	-8.975E+02	 1.218E+02	 1.008E+01	 1.422E+02	-4.647E+00	-2.031E+03	 4.869E+02	 1.082E+04	 4.245E+02	 1.795E+02	 2.034E+00	 2.600E+00
 597.350	 4.722E+00	-1.148E-01	 6.125E-01	 4.890E+01	 4.536E+01	 1.724E+02	-8.762E+02	 1.509E+03	 3.120E+01	 1.468E+03	-9.437E+02	 1.208E+02	 1.009E+01	 1.394E+02	-6.049E+00	-2.030E+03	 5.837E+02	 1.075E+04	 4.373E+02	 1.797E+02	 2.036E+00	 2.600E+00
 597.400	 4.742E+00	-9.500E-02	 7.029E-01	 4.529E+01	 4.793E+01	 1.698E+02	-9.282E+02	 1.453E+03	 3.109E+01	 1.409E+03	-9.931E+02	 1.190E+02	 1.009E+01	 1.375E+02	-6.966E+00	-2.032E+03	 6.622E+02	 1.073E+04	 5.265E+02	 1.800E+02	 2.038E+00	 2.600E+00
 597.450	 4.811E+00	 1.804E-02	 6.344E-01	 4.418E+01	 5.063E+01	 1.684E+02	-9.736E+02	 1.431E+03	 3.041E+01	 1.385E+03	-1.038E+03	 1.187E+02	 1.010E+01	 1.423E+02	-8.199E+00	-2.031E+03	 7.331E+02	 1.087E+04	 5.193E+02	 1.803E+02	 2.040E+00	 2.600E+00
 597.500	 4.765E+00	 2.186E-01	 4.426E-01	 4.424E+01	 5.183E+01	 1.665E+02	-1.011E+03	 1.404E+03	 3.004E+01	 1.356E+03	-1.074E+03	 1.174E+02	 1.010E+01	 1.449E+02	-8.588E+00	-2.031E+03	 7.735E+02	 1.097E+04	 5.468E+02	 1.805E+02	 2.042E+00	 2.600E+00
 597.550	 4.724E+00	 2.400E-01	 5.965E-01	 4.356E+01	 5.489E+01	 1.640E+02	-1.049E+03	 1.401E+03	 3.102E+01	 1.352E+03	-1.112E+03	 1.222E+02	 1.011E+01	 1.466E+02	-8.765E+00	-2.033E+03	 7.950E+02	 1.106E+04	 5.947E+02	 1.808E+02	 2.044E+00	 2.600E+00
 597.600	 4.972E+00	-7.227E-03	 6.376E-01	 4.495E+01	 5.545E+01	 1.616E+02	-1.077E+03	 1.397E+03	 3.150E+01	 1.347E+03	-1.139E+03	 1.250E+02	 1.011E+01	 1.479E+02	-8.945E+00	-2.032E+03	 8.031E+02	 1.112E+04	 6.048E+02	 1.810E+02	 2.046E+00	 2.600E+00
 597.650	 4.901E+00	 3.204E-01	 5.468E-01	 4.046E+01	 5.765E+01	 1.598E+02	-1.104E+03	 1.353E+03	 2.873E+01	 1.302E+03	-1.164E+03	 1.184E+02	 1.012E+01	 1.471E+02	-8.730E+00	-2.031E+03	 7.913E+02	 1.113E+04	 6.256E+02	 1.816E+02	 2.050E+00	 2.600E+00
 597.700	 4.917E+00	 1.706E-01	 5.666E-01	 4.155E+01	 5.870E+01	 1.570E+02	-1.130E+03	 1.351E+03	 2.930E+01	 1.298E+03	-1.190E+03	 1.269E+02	 1.013E+01	 1.437E+02	-8.122E+00	-2.031E+03	 7.611E+02	 1.110E+04	 6.819E+02	 1.821E+02	 2.053E+00	 2.600E+00
 597.750	 4.781E+00	 2.947E-02	 6.698E-01	 4.054E+01	 6.042E+01	 1.545E+02	-1.148E+03	 1.339E+03	 2.977E+01	 1.286E+03	-1.208E+03	 1.280E+02	 1.014E+01	 1.429E+02	-7.759E+00	-2.030E+03	 7.241E+02	 1.113E+04	 7.022E+02	 1.825E+02	 2.057E+00	 2.600E+00
 597.800	 4.646E+00	 1.848E-01	 6.498E-01	 4.020E+01	 6.146E+01	 1.521E+02	-1.163E+03	 1.337E+03	 2.921E+01	 1.283E+03	-1.222E+03	 1.302E+02	 1.015E+01	 1.461E+02	-7.453E+00	-2.030E+03	 6.763E+02	 1.127E+04	 7.120E+02	 1.829E+02	 2.060E+00	 2.600E+00
 597.850	 4.612E+00	-2.748E-01	 6.682E-01	 4.368E+01	 6.027E+01	 1.495E+02	-1.166E+03	 1.340E+03	 3.002E+01	 1.286E+03	-1.225E+03	 1.326E+02	 1.015E+01	 1.491E+02	-6.545E+00	-2.028E+03	 6.040E+02	 1.144E+04	 6.782E+02	 1.831E+02	 2.061E+00	 2.600E+00
 597.900	 4.792E+00	-3.037E-01	 6.865E-01	 3.945E+01	 6.177E+01	 1.464E+02	-1.173E+03	 1.309E+03	 2.962E+01	 1.255E+03	-1.232E+03	 1.267E+02	 1.015E+01	 1.542E+02	-5.502E+00	-2.030E+03	 5.157E+02	 1.167E+04	 6.754E+02	 1.832E+02	 2.062E+00	 2.600E+00
 597.950	 4.941E+00	-2.333E-01	 6.925E-01	 4.053E+01	 6.214E+01	 1.437E+02	-1.178E+03	 1.310E+03	 2.963E+01	 1.256E+03	-1.236E+03	 1.305E+02	 1.015E+01	 1.578E+02	-3.849E+00	-2.030E+03	 4.045E+02	 1.187E+04	 6.466E+02	 1.832E+02	 2.062E+00	 2.600E+00
 598.000	 5.050E+00	-1.803E-01	 6.909E-01	 4.102E+01	 6.168E+01	 1.408E+02	-1.170E+03	 1.319E+03	 2.910E+01	 1.264E+03	-1.228E+03	 1.254E+02	 1.015E+01	 1.586E+02	-2.352E+00	-2.029E+03	 2.865E+02	 1.200E+04	 5.495E+02	 1.832E+02	 2.062E+00	 2.600E+00
 598.050	 5.077E+00	-1.033E-01	 6.722E-01	 3.803E+01	 6.210E+01	 1.379E+02	-1.167E+03	 1.295E+03	 2.743E+01	 1.241E+03	-1.225E+03	 1.200E+02	 1.015E+01	 1.607E+02	-6.437E-01	-2.030E+03	 1.580E+02	 1.213E+04	 5.121E+02	 1.832E+02	 2.062E+00	 2.600E+00
 598.100	 5.410E+00	-3.128E-01	 4.774E-01	 4.400E+01	 6.016E+01	 1.350E+02	-1.152E+03	 1.336E+03	 2.938E+01	 1.283E+03	-1.212E+03	 1.209E+02	 1.015E+01	 1.604E+02	 1.213E+00	-2.026E+03	 2.251E+01	 1.218E+04	 3.970E+02	 1.832E+02	 2.062E+00	 2.600E+00
 598.150	 5.378E+00	-1.250E-01	 6.106E-01	 4.072E+01	 6.163E+01	 1.320E+02	-1.152E+03	 1.325E+03	 2.871E+01	 1.271E+03	-1.211E+03	 1.196E+02	 1.015E+01	 1.619E+02	 3.118E+00	-2.029E+03	-1.170E+02	 1.226E+04	 3.907E+02	 1.833E+02	 2.062E+00	 2.600E+00
 598.200	 5.352E+00	 8.596E-02	 6.380E-01	 4.234E+01	 5.996E+01	 1.287E+02	-1.136E+03	 1.342E+03	 2.944E+01	 1.289E+03	-1.196E+03	 1.150E+02	 1.016E+01	 1.620E+02	 5.029E+00	-2.028E+03	-2.575E+02	 1.230E+04	 2.862E+02	 1.834E+02	 2.064E+00	 2.600E+00
 598.250	 5.329E+00	 2.044E-01	 7.494E-01	 4.452E+01	 5.945E+01	 1.259E+02	-1.126E+03	 1.381E+03	 2.994E+01	 1.329E+03	-1.187E+03	 1.185E+02	 1.016E+01	 1.638E+02	 6.773E+00	-2.029E+03	-3.937E+02	 1.235E+04	 2.412E+02	 1.836E+02	 2.065E+00	 2.600E+00
 598.300	 5.331E+00	 5.206E-01	 7.574E-01	 4.489E+01	 5.904E+01	 1.228E+02	-1.107E+03	 1.411E+03	 3.058E+01	 1.360E+03	-1.170E+03	 1.117E+02	 1.016E+01	 1.645E+02	 8.552E+00	-2.029E+03	-5.265E+02	 1.235E+04	 1.316E+02	 1.839E+02	 2.067E+00	 2.600E+00
 598.350	 5.442E+00	 5.271E-01	 5.115E-01	 4.526E+01	 5.784E+01	 1.198E+02	-1.096E+03	 1.432E+03	 3.044E+01	 1.381E+03	-1.160E+03	 1.152E+02	 1.017E+01	 1.652E+02	 1.003E+01	-2.030E+03	-6.484E+02	 1.231E+04	 1.415E+02	 1.840E+02	 2.068E+00	 2.600E+00
 598.400	 5.482E+00	 6.483E-01	 3.521E-01	 4.576E+01	 5.771E+01	 1.170E+02	-1.081E+03	 1.468E+03	 3.039E+01	 1.417E+03	-1.146E+03	 1.178E+02	 1.017E+01	 1.617E+02	 1.173E+01	-2.030E+03	-7.673E+02	 1.215E+04	 1.020E+02	 1.842E+02	 2.069E+00	 2.600E+00
 598.450	 5.414E+00	 7.561E-01	 4.052E-01	 4.643E+01	 5.626E+01	 1.139E+02	-1.057E+03	 1.502E+03	 3.096E+01	 1.452E+03	-1.124E+03	 1.137E+02	 1.017E+01	 1.580E+02	 1.298E+01	-2.029E+03	-8.702E+02	 1.194E+04	 8.046E+01	 1.843E+02	 2.070E+00	 2.600E+00
 598.500	 5.324E+00	 5.815E-01	 4.806E-01	 4.527E+01	 5.569E+01	 1.111E+02	-1.045E+03	 1.509E+03	 3.019E+01	 1.460E+03	-1.112E+03	 1.200E+02	 1.017E+01	 1.509E+02	 1.445E+01	-2.030E+03	-9.681E+02	 1.165E+04	 1.078E+02	 1.843E+02	 2.070E+00	 2.600E+00
 598.550	 5.186E+00	 7.056E-01	 5.962E-01	 4.445E+01	 5.470E+01	 1.084E+02	-1.023E+03	 1.528E+03	 2.944E+01	 1.480E+03	-1.091E+03	 1.189E+02	 1.018E+01	 1.458E+02	 1.553E+01	-2.030E+03	-1.050E+03	 1.140E+04	 1.432E+02	 1.844E+02	 2.071E+00	 2.600E+00
 598.600	 5.108E+00	 4.311E-01	 7.063E-01	 5.060E+01	 5.212E+01	 1.055E+02	-9.879E+02	 1.598E+03	 3.234E+01	 1.551E+03	-1.059E+03	 1.250E+02	 1.018E+01	 1.436E+02	 1.608E+01	-2.027E+03	-1.111E+03	 1.121E+04	 9.807E+01	 1.845E+02	 2.071E+00	 2.600E+00
 598.650	 5.127E+00	 3.550E-01	 4.417E-01	 4.857E+01	 5.092E+01	 1.031E+02	-9.614E+02	 1.593E+03	 3.064E+01	 1.547E+03	-1.033E+03	 1.258E+02	 1.018E+01	 1.407E+02	 1.649E+01	-2.028E+03	-1.158E+03	 1.104E+04	 1.551E+02	 1.846E+02	 2.072E+00	 2.600E+00
 598.700	 5.122E+00	 2.255E-01	 4.512E-01	 4.606E+01	 4.830E+01	 1.008E+02	-9.328E+02	 1.547E+03	 2.882E+01	 1.503E+03	-1.002E+03	 1.227E+02	 1.018E+01	 1.394E+02	 1.711E+01	-2.028E+03	-1.197E+03	 1.092E+04	 2.220E+02	 1.848E+02	 2.074E+00	 2.600E+00
 598.750	 4.985E+00	 2.235E-01	 4.823E-01	 4.918E+01	 4.676E+01	 9.808E+01	-8.950E+02	 1.584E+03	 3.095E+01	 1.541E+03	-9.659E+02	 1.274E+02	 1.018E+01	 1.403E+02	 1.729E+01	-2.029E+03	-1.215E+03	 1.086E+04	 2.195E+02	 1.849E+02	 2.075E+00	 2.600E+00
 598.800	 5.215E+00	 2.956E-01	 1.646E-01	 4.760E+01	 4.416E+01	 9.554E+01	-8.574E+02	 1.551E+03	 3.056E+01	 1.510E+03	-9.269E+02	 1.234E+02	 1.019E+01	 1.400E+02	 1.717E+01	-2.029E+03	-1.215E+03	 1.080E+04	 2.368E+02	 1.850E+02	 2.075E+00	 2.600E+00
 598.850	 5.232E+00	 7.986E-02	 1.216E-01	 4.416E+01	 4.218E+01	 9.360E+01	-8.139E+02	 1.510E+03	 2.855E+01	 1.471E+03	-8.815E+02	 1.162E+02	 1.019E+01	 1.399E+02	 1.667E+01	-2.028E+03	-1.196E+03	 1.076E+04	 2.500E+02	 1.851E+02	 2.076E+00	 2.600E+00
 598.900	 5.167E+00	 1.217E-01	 3.032E-01	 4.106E+01	 4.053E+01	 9.144E+01	-7.752E+02	 1.471E+03	 2.696E+01	 1.435E+03	-8.411E+02	 1.157E+02	 1.019E+01	 1.396E+02	 1.644E+01	-2.029E+03	-1.170E+03	 1.072E+04	 2.620E+02	 1.850E+02	 2.076E+00	 2.600E+00
 598.950	 5.148E+00	 1.600E-01	 7.129E-02	 4.300E+01	 3.701E+01	 8.942E+01	-7.260E+02	 1.467E+03	 2.734E+01	 1.433E+03	-7.918E+02	 1.200E+02	 1.019E+01	 1.408E+02	 1.574E+01	-2.028E+03	-1.125E+03	 1.073E+04	 2.410E+02	 1.851E+02	 2.076E+00	 2.600E+00
 599.000	 4.928E+00	 9.112E-02	 9.734E-02	 4.095E+01	 3.435E+01	 8.735E+01	-6.749E+02	 1.446E+03	 2.637E+01	 1.414E+03	-7.398E+02	 1.178E+02	 1.019E+01	 1.421E+02	 1.512E+01	-2.029E+03	-1.071E+03	 1.075E+04	 2.475E+02	 1.852E+02	 2.077E+00	 2.600E+00
 599.050	 4.904E+00	 3.656E-01	 9.859E-02	 4.251E+01	 3.137E+01	 8.599E+01	-6.191E+02	 1.464E+03	 2.585E+01	 1.434E+03	-6.849E+02	 1.209E+02	 1.019E+01	 1.448E+02	 1.454E+01	-2.029E+03	-1.008E+03	 1.080E+04	 1.792E+02	 1.853E+02	 2.078E+00	 2.600E+00
 599.100	 5.018E+00	 4.465E-01	-1.578E-01	 4.028E+01	 2.903E+01	 8.452E+01	-5.661E+02	 1.467E+03	 2.370E+01	 1.440E+03	-6.321E+02	 1.219E+02	 1.020E+01	 1.456E+02	 1.375E+01	-2.029E+03	-9.330E+02	 1.082E+04	 1.203E+02	 1.857E+02	 2.080E+00	 2.600E+00
 599.150	 5.121E+00	 5.152E-01	-1.812E-01	 4.295E+01	 2.624E+01	 8.316E+01	-5.012E+02	 1.526E+03	 2.424E+01	 1.502E+03	-5.699E+02	 1.237E+02	 1.020E+01	 1.471E+02	 1.287E+01	-2.030E+03	-8.480E+02	 1.082E+04	 1.093E+02	 1.860E+02	 2.083E+00	 2.600E+00
 599.200	 5.273E+00	 3.682E-01	-1.724E-01	 4.442E+01	 2.320E+01	 8.256E+01	-4.383E+02	 1.573E+03	 2.237E+01	 1.551E+03	-5.092E+02	 1.269E+02	 1.021E+01	 1.433E+02	 1.168E+01	-2.031E+03	-7.486E+02	 1.071E+04	 5.982E+01	 1.863E+02	 2.085E+00	 2.600E+00
 599.250	 5.384E+00	 1.063E-01	-1.361E-01	 4.567E+01	 1.942E+01	 8.185E+01	-3.678E+02	 1.609E+03	 2.094E+01	 1.591E+03	-4.404E+02	 1.220E+02	 1.021E+01	 1.383E+02	 1.054E+01	-2.028E+03	-6.420E+02	 1.056E+04	 7.378E+01	 1.866E+02	 2.087E+00	 2.600E+00
 599.300	 5.277E+00	 2.404E-01	 1.536E-03	 4.726E+01	 1.613E+01	 8.113E+01	-3.005E+02	 1.652E+03	 1.981E+01	 1.636E+03	-3.752E+02	 1.276E+02	 1.022E+01	 1.319E+02	 8.790E+00	-2.027E+03	-5.164E+02	 1.040E+04	 8.967E+01	 1.868E+02	 2.089E+00	 2.600E+00
 599.350	 5.423E+00	 4.442E-01	 3.109E-03	 4.686E+01	 1.300E+01	 8.055E+01	-2.337E+02	 1.672E+03	 1.741E+01	 1.660E+03	-3.094E+02	 1.312E+02	 1.022E+01	 1.287E+02	 6.977E+00	-2.027E+03	-3.841E+02	 1.035E+04	 1.478E+02	 1.870E+02	 2.090E+00	 2.600E+00
 599.400	 5.302E+00	 3.212E-01	 7.347E-03	 4.929E+01	 7.912E+00	 7.969E+01	-1.424E+02	 1.709E+03	 1.744E+01	 1.701E+03	-2.198E+02	 1.218E+02	 1.023E+01	 1.321E+02	 4.711E+00	-2.029E+03	-2.411E+02	 1.048E+04	 2.216E+02	 1.872E+02	 2.092E+00	 2.600E+00
 599.450	 5.441E+00	 5.081E-01	-3.716E-02	 4.852E+01	 4.528E+00	 7.887E+01	-6.804E+01	 1.718E+03	 1.548E+01	 1.713E+03	-1.459E+02	 1.217E+02	 1.023E+01	 1.368E+02	 3.182E+00	-2.031E+03	-1.105E+02	 1.069E+04	 3.202E+02	 1.874E+02	 2.093E+00	 2.600E+00
 599.500	 5.547E+00	 5.617E-01	-5.445E-02	 4.779E+01	 5.304E-01	 7.858E+01	 4.633E+00	 1.712E+03	 1.252E+01	 1.710E+03	-7.303E+01	 1.268E+02	 1.023E+01	 1.415E+02	 1.556E+00	-2.031E+03	 2.165E+01	 1.092E+04	 3.737E+02	 1.876E+02	 2.095E+00	 2.600E+00
 599.550	 5.855E+00	 4.545E-01	-9.765E-02	 4.748E+01	-3.189E+00	 7.778E+01	 8.758E+01	 1.731E+03	 1.145E+01	 1.733E+03	 8.969E+00	 1.217E+02	 1.024E+01	 1.459E+02	-1.161E-01	-2.031E+03	 1.525E+02	 1.114E+04	 3.498E+02	 1.878E+02	 2.096E+00	 2.600E+00
 599.600	 5.925E+00	 6.120E-01	-2.092E-01	 4.787E+01	-6.702E+00	 7.776E+01	 1.650E+02	 1.758E+03	 9.122E+00	 1.764E+03	 8.502E+01	 1.232E+02	 1.024E+01	 1.473E+02	-1.593E+00	-2.030E+03	 2.782E+02	 1.129E+04	 3.780E+02	 1.882E+02	 2.099E+00	 2.600E+00
 599.650	 5.873E+00	 1.603E-01	-1.547E-01	 5.082E+01	-1.185E+01	 7.821E+01	 2.429E+02	 1.780E+03	 7.371E+00	 1.789E+03	 1.619E+02	 1.247E+02	 1.025E+01	 1.464E+02	-3.189E+00	-2.031E+03	 4.029E+02	 1.138E+04	 3.506E+02	 1.885E+02	 2.101E+00	 2.600E+00
 599.700	 5.941E+00	 2.486E-01	-5.561E-02	 5.637E+01	-1.610E+01	 7.817E+01	 3.203E+02	 1.852E+03	 8.077E+00	 1.864E+03	 2.360E+02	 1.309E+02	 1.026E+01	 1.462E+02	-4.565E+00	-2.030E+03	 5.189E+02	 1.148E+04	 3.704E+02	 1.887E+02	 2.103E+00	 2.600E+00
 599.750	 5.877E+00	 2.656E-01	 9.822E-02	 5.262E+01	-1.838E+01	 7.918E+01	 3.866E+02	 1.842E+03	 3.792E+00	 1.858E+03	 3.026E+02	 1.251E+02	 1.026E+01	 1.455E+02	-6.035E+00	-2.029E+03	 6.315E+02	 1.160E+04	 3.457E+02	 1.890E+02	 2.105E+00	 2.600E+00
 599.800	 5.840E+00	-8.056E-02	 1.246E-01	 5.296E+01	-2.220E+01	 7.997E+01	 4.526E+02	 1.849E+03	 1.487E+00	 1.868E+03	 3.682E+02	 1.242E+02	 1.026E+01	 1.476E+02	-7.343E+00	-2.029E+03	 7.341E+02	 1.181E+04	 3.640E+02	 1.893E+02	 2.108E+00	 2.600E+00
 599.850	 5.868E+00	-1.789E-01	-3.287E-02	 5.411E+01	-2.522E+01	 8.089E+01	 5.154E+02	 1.867E+03	 1.046E-01	 1.888E+03	 4.302E+02	 1.270E+02	 1.027E+01	 1.526E+02	-8.470E+00	-2.029E+03	 8.250E+02	 1.210E+04	 3.875E+02	 1.895E+02	 2.109E+00	 2.600E+00
 599.900	 5.715E+00	-1.155E-01	-3.190E-02	 5.807E+01	-2.970E+01	 8.150E+01	 5.767E+02	 1.881E+03	 4.328E-01	 1.905E+03	 4.908E+02	 1.341E+02	 1.027E+01	 1.588E+02	-9.575E+00	-2.029E+03	 9.053E+02	 1.241E+04	 3.802E+02	 1.896E+02	 2.110E+00	 2.600E+00
 599.950	 5.463E+00	 1.116E-01	-3.339E-01	 5.601E+01	-3.189E+01	 8.251E+01	 6.339E+02	 1.861E+03	-9.497E-01	 1.888E+03	 5.488E+02	 1.329E+02	 1.027E+01	 1.637E+02	-1.060E+01	-2.030E+03	 9.732E+02	 1.271E+04	 3.685E+02	 1.897E+02	 2.110E+00	 2.600E+00
 600.000	 5.395E+00	 2.284E-01	-4.159E-01	 5.415E+01	-3.476E+01	 8.400E+01	 6.896E+02	 1.830E+03	-3.341E+00	 1.859E+03	 6.059E+02	 1.287E+02	 1.027E+01	 1.678E+02	-1.113E+01	-2.031E+03	 1.019E+03	 1.298E+04	 3.927E+02	 1.898E+02	 2.111E+00	 2.600E+00
