
This summary file was generated by TurbSim (v1.06.00, 21-Sep-2012) on 04-Oct-2016 at 12:18:43.


Runtime Options:

   2318573  Random seed #1
    RANLUX  Type of random number generator
         F  Output binary HH turbulence parameters?
         F  Output formatted turbulence parameters?
         F  Output AeroDyn HH files?
         F  Output AeroDyn FF files?
         T  Output BLADED FF files?
         F  Output tower data?
         F  Output formatted FF files?
         F  Output coherent turbulence time step file?
         T  Clockwise rotation when looking downwind?
 0 -  NONE  IEC turbulence models scaled to exact specified standard deviation


Turbine/Model Specifications:

        11  Vertical grid-point matrix dimension
        11  Horizontal grid-point matrix dimension
     0.010  Time step [seconds]
   630.000  Analysis time [seconds]
   630.000  Usable output time [seconds]
   100.000  Hub height [m]
   150.000  Grid height [m]
   110.000  Grid width [m]
     0.000  Vertical flow angle [degrees]
     0.000  Horizontal flow angle [degrees]


Meteorological Boundary Conditions:

    IECKAI  IEC Kaimal spectral model
         1  IEC standard: IEC 61400-1 Ed. 3: 2005
    26.210  Percent turbulence intensity, IEC 61400-1 Ed. 3: 2005
       NTM  IEC Normal Turbulence Model
       N/A  IEC Extreme Turbulence Model (ETM) "c" parameter [m/s]
       PL   Wind profile type
    80.000  Reference height [m]
     5.000  Reference wind speed [m/s]
       N/A  Jet height [m]
     0.110  Power law exponent
     0.030  Surface roughness length [m]


You have requested that the following file(s) be generated:

   TurbSim_ws_wake5_8.wnd (AeroDyn/BLADED full-field wnd file)


Turbulence Simulation Scaling Parameter Summary:

   Turbulence model used                            =  IEC Kaimal
   Turbulence characteristic                        =  User-specified
   IEC standard                                     =  IEC 61400-1 Ed. 3: 2005
   Mean wind speed at hub height                    =    5.124 m/s
   Characteristic value of standard deviation       =    1.343 m/s
   Turbulence scale                                 =   42.000 m
   u-component integral scale                       =  340.200 m
   Coherency scale                                  =  340.200 m
   Characteristic value of hub turbulence intensity =   26.210%
   Gradient Richardson number                       =    0.000

   Wind profile type                                =  Power law
   Power law exponent                               =    0.110
   Mean shear across rotor disk                     =    0.006 (m/s)/m
   Assumed rotor diameter                           =  110.000 m
   Surface roughness length                         =    0.030 m

   Number of time steps in the FFT                  =    65208
   Number of time steps output                      =    65147


Mean Flow Angles:

   Vertical   =   0.0 degrees
   Horizontal =   0.0 degrees

Mean Wind Speed Profile:

   Height    Wind Speed   Horizontal Angle  U-comp (X)   V-comp (Y)   W-comp (Z)
     (m)        (m/s)         (degrees)       (m/s)        (m/s)        (m/s)   
   ------    ----------   ----------------  ----------   ----------   ----------
    155.0        5.38            0.00          5.38         0.00         0.00
    140.0        5.32            0.00          5.32         0.00         0.00
    125.0        5.25            0.00          5.25         0.00         0.00
    110.0        5.18            0.00          5.18         0.00         0.00
    100.0        5.12            0.00          5.12         0.00         0.00
     95.0        5.10            0.00          5.10         0.00         0.00
     80.0        5.00            0.00          5.00         0.00         0.00
     65.0        4.89            0.00          4.89         0.00         0.00
     50.0        4.75            0.00          4.75         0.00         0.00
     35.0        4.57            0.00          4.57         0.00         0.00
     20.0        4.29            0.00          4.29         0.00         0.00
      5.0        3.69            0.00          3.69         0.00         0.00


Harvested Random Seeds after Generation of the Random Numbers:

    110878053 K1
            0 K2


Hub-Height Simulated Turbulence Statistical Summary:

   Type of Wind        Min (m/s)   Mean (m/s)    Max (m/s)  Sigma (m/s)       TI (%)
   ----------------    ---------   ----------    ---------  -----------       ------
   Longitudinal (u)         2.51         5.12         7.87        0.822       16.045
   Lateral (v)             -3.36         0.00         3.56        1.038       20.255
   Vertical (w)            -2.15         0.00         2.25        0.664       12.949
   U component              2.51         5.12         7.87        0.822       16.045
   V component             -3.36         0.00         3.56        1.038       20.255
   W component             -2.15         0.00         2.25        0.664       12.949
   Horizontal (U&V)         2.71         5.23         7.87        0.820       15.688
   Total                    2.78         5.27         7.87        0.817       15.505

                       Min Reynolds     Mean Reynolds    Max Reynolds    Correlation
   Product             Stress (m/s)^2   Stress (m/s)^2   Stress (m/s)^2  Coefficient
   ----------------    --------------   --------------   --------------  -----------
   u'w'                     -4.016            -0.088             2.370        -0.160
   u'v'                     -5.844             0.186             5.641         0.218
   v'w'                     -5.056            -0.017             4.982        -0.025


   Friction Velocity (Ustar)  =      0.296 m/s
   Maximum Instantaneous TKE  =      6.695 (m/s)^2
   Maximum Instantaneous CTKE =      3.437 (m/s)^2


Grid Point Variance Summary:

   Y-coord  -55.00  -44.00  -33.00  -22.00  -11.00    0.00   11.00   22.00   33.00   44.00   55.00

   Height   Standard deviation at grid points for the u component:
   155.00    1.206   1.160   0.946   0.877   0.905   0.876   0.875   0.973   1.000   0.882   0.955
   140.00    1.133   1.023   0.972   0.893   0.896   0.933   0.850   0.951   0.997   1.028   1.104
   125.00    1.006   0.901   0.859   1.079   1.069   0.977   0.960   0.905   1.092   1.030   1.156
   110.00    0.995   1.017   0.939   0.957   1.005   0.917   0.964   1.020   1.091   1.066   1.158
    95.00    1.088   1.024   0.968   0.944   0.890   0.839   0.905   0.877   1.077   1.003   1.045
    80.00    1.158   1.150   1.012   0.949   0.872   0.979   0.942   0.970   1.103   1.126   1.198
    65.00    1.333   1.191   1.180   0.996   0.998   0.997   1.031   0.996   1.083   1.106   1.050
    50.00    1.532   1.359   1.377   1.173   1.032   1.004   0.938   1.052   1.069   1.129   1.077
    35.00    1.497   1.458   1.420   1.179   1.270   1.042   1.035   1.019   1.004   1.093   1.096
    20.00    1.364   1.261   1.267   1.240   1.160   1.083   1.207   1.085   0.994   1.129   1.097
     5.00    1.222   1.242   1.338   1.314   1.256   1.190   1.206   1.143   1.135   1.132   1.130

   Height   Standard deviation at grid points for the v component:
   155.00    1.038   1.038   1.038   1.038   1.038   1.038   1.038   1.038   1.038   1.038   1.038
   140.00    1.038   1.038   1.038   1.038   1.038   1.038   1.038   1.038   1.038   1.038   1.038
   125.00    1.038   1.038   1.038   1.038   1.038   1.038   1.038   1.038   1.038   1.038   1.038
   110.00    1.038   1.038   1.038   1.038   1.038   1.038   1.038   1.038   1.038   1.038   1.038
    95.00    1.038   1.038   1.038   1.038   1.038   1.038   1.038   1.038   1.038   1.038   1.038
    80.00    1.038   1.038   1.038   1.038   1.038   1.038   1.038   1.038   1.038   1.038   1.038
    65.00    1.038   1.038   1.038   1.038   1.038   1.038   1.038   1.038   1.038   1.038   1.038
    50.00    1.038   1.038   1.038   1.038   1.038   1.038   1.038   1.038   1.038   1.038   1.038
    35.00    1.038   1.038   1.038   1.038   1.038   1.038   1.038   1.038   1.038   1.038   1.038
    20.00    1.038   1.038   1.038   1.038   1.038   1.038   1.038   1.038   1.038   1.038   1.038
     5.00    1.038   1.038   1.038   1.038   1.038   1.038   1.038   1.038   1.038   1.038   1.038

   Height   Standard deviation at grid points for the w component:
   155.00    0.664   0.664   0.664   0.664   0.664   0.664   0.664   0.664   0.664   0.664   0.664
   140.00    0.664   0.664   0.664   0.664   0.664   0.664   0.664   0.664   0.664   0.664   0.664
   125.00    0.664   0.664   0.664   0.664   0.664   0.664   0.664   0.664   0.664   0.664   0.664
   110.00    0.664   0.664   0.664   0.664   0.664   0.664   0.664   0.664   0.664   0.664   0.664
    95.00    0.664   0.664   0.664   0.664   0.664   0.664   0.664   0.664   0.664   0.664   0.664
    80.00    0.664   0.664   0.664   0.664   0.664   0.664   0.664   0.664   0.664   0.664   0.664
    65.00    0.664   0.664   0.664   0.664   0.664   0.664   0.664   0.664   0.664   0.664   0.664
    50.00    0.664   0.664   0.664   0.664   0.664   0.664   0.664   0.664   0.664   0.664   0.664
    35.00    0.664   0.664   0.664   0.664   0.664   0.664   0.664   0.664   0.664   0.664   0.664
    20.00    0.664   0.664   0.664   0.664   0.664   0.664   0.664   0.664   0.664   0.664   0.664
     5.00    0.664   0.664   0.664   0.664   0.664   0.664   0.664   0.664   0.664   0.664   0.664

   Mean standard deviation across all grid points:
      u component:    1.072 m/s
      v component:    1.038 m/s
      w component:    0.664 m/s


U-component (X) statistics from the interpolated hub point:

   Mean =   5.1230 m/s
   TI   =  13.8763 %


Normalizing Parameters for Binary Data (approximate statistics):

   UBar  =   5.1242 m/s
   TI(u) =  16.0455 %
   TI(v) =  20.2546 %
   TI(w) =  12.9494 %

   Height Offset =  20.0000 m
   Grid Base     =   5.0000 m

Nyquist frequency of turbulent wind field =        50.000 Hz


Processing complete.  9.25 CPU seconds used.
