
This summary file was generated by TurbSim (v1.06.00, 21-Sep-2012) on 04-Oct-2016 at 12:18:59.


Runtime Options:

   2318573  Random seed #1
    RANLUX  Type of random number generator
         F  Output binary HH turbulence parameters?
         F  Output formatted turbulence parameters?
         F  Output AeroDyn HH files?
         F  Output AeroDyn FF files?
         T  Output BLADED FF files?
         F  Output tower data?
         F  Output formatted FF files?
         F  Output coherent turbulence time step file?
         T  Clockwise rotation when looking downwind?
 0 -  NONE  IEC turbulence models scaled to exact specified standard deviation


Turbine/Model Specifications:

        11  Vertical grid-point matrix dimension
        11  Horizontal grid-point matrix dimension
     0.010  Time step [seconds]
   630.000  Analysis time [seconds]
   630.000  Usable output time [seconds]
   100.000  Hub height [m]
   150.000  Grid height [m]
   110.000  Grid width [m]
     0.000  Vertical flow angle [degrees]
     0.000  Horizontal flow angle [degrees]


Meteorological Boundary Conditions:

    IECKAI  IEC Kaimal spectral model
         1  IEC standard: IEC 61400-1 Ed. 3: 2005
    18.270  Percent turbulence intensity, IEC 61400-1 Ed. 3: 2005
       NTM  IEC Normal Turbulence Model
       N/A  IEC Extreme Turbulence Model (ETM) "c" parameter [m/s]
       PL   Wind profile type
    80.000  Reference height [m]
    10.000  Reference wind speed [m/s]
       N/A  Jet height [m]
     0.110  Power law exponent
     0.030  Surface roughness length [m]


You have requested that the following file(s) be generated:

   TurbSim_ws_wake10_8.wnd (AeroDyn/BLADED full-field wnd file)


Turbulence Simulation Scaling Parameter Summary:

   Turbulence model used                            =  IEC Kaimal
   Turbulence characteristic                        =  User-specified
   IEC standard                                     =  IEC 61400-1 Ed. 3: 2005
   Mean wind speed at hub height                    =   10.248 m/s
   Characteristic value of standard deviation       =    1.872 m/s
   Turbulence scale                                 =   42.000 m
   u-component integral scale                       =  340.200 m
   Coherency scale                                  =  340.200 m
   Characteristic value of hub turbulence intensity =   18.270%
   Gradient Richardson number                       =    0.000

   Wind profile type                                =  Power law
   Power law exponent                               =    0.110
   Mean shear across rotor disk                     =    0.012 (m/s)/m
   Assumed rotor diameter                           =  110.000 m
   Surface roughness length                         =    0.030 m

   Number of time steps in the FFT                  =    64152
   Number of time steps output                      =    64074


Mean Flow Angles:

   Vertical   =   0.0 degrees
   Horizontal =   0.0 degrees

Mean Wind Speed Profile:

   Height    Wind Speed   Horizontal Angle  U-comp (X)   V-comp (Y)   W-comp (Z)
     (m)        (m/s)         (degrees)       (m/s)        (m/s)        (m/s)   
   ------    ----------   ----------------  ----------   ----------   ----------
    155.0       10.75            0.00         10.75         0.00         0.00
    140.0       10.63            0.00         10.63         0.00         0.00
    125.0       10.50            0.00         10.50         0.00         0.00
    110.0       10.36            0.00         10.36         0.00         0.00
    100.0       10.25            0.00         10.25         0.00         0.00
     95.0       10.19            0.00         10.19         0.00         0.00
     80.0       10.00            0.00         10.00         0.00         0.00
     65.0        9.77            0.00          9.77         0.00         0.00
     50.0        9.50            0.00          9.50         0.00         0.00
     35.0        9.13            0.00          9.13         0.00         0.00
     20.0        8.59            0.00          8.59         0.00         0.00
      5.0        7.37            0.00          7.37         0.00         0.00


Harvested Random Seeds after Generation of the Random Numbers:

    109082457 K1
            0 K2


Hub-Height Simulated Turbulence Statistical Summary:

   Type of Wind        Min (m/s)   Mean (m/s)    Max (m/s)  Sigma (m/s)       TI (%)
   ----------------    ---------   ----------    ---------  -----------       ------
   Longitudinal (u)         5.12        10.25        15.36        1.930       18.833
   Lateral (v)             -4.99         0.00         6.58        1.469       14.336
   Vertical (w)            -3.93         0.00         3.43        0.927        9.044
   U component              5.12        10.25        15.36        1.930       18.833
   V component             -4.99         0.00         6.58        1.469       14.336
   W component             -3.93         0.00         3.43        0.927        9.044
   Horizontal (U&V)         5.15        10.36        15.36        1.919       18.531
   Total                    5.15        10.40        15.42        1.909       18.358

                       Min Reynolds     Mean Reynolds    Max Reynolds    Correlation
   Product             Stress (m/s)^2   Stress (m/s)^2   Stress (m/s)^2  Coefficient
   ----------------    --------------   --------------   --------------  -----------
   u'w'                    -11.175             0.120            12.264         0.067
   u'v'                    -17.418            -0.345            14.620        -0.122
   v'w'                    -14.669            -0.048             9.313        -0.035


   Friction Velocity (Ustar)  =      0.346 m/s
   Maximum Instantaneous TKE  =     22.269 (m/s)^2
   Maximum Instantaneous CTKE =      9.194 (m/s)^2


Grid Point Variance Summary:

   Y-coord  -55.00  -44.00  -33.00  -22.00  -11.00    0.00   11.00   22.00   33.00   44.00   55.00

   Height   Standard deviation at grid points for the u component:
   155.00    1.819   1.844   2.082   2.261   2.123   2.330   2.215   2.064   2.068   2.056   2.190
   140.00    1.955   1.770   1.804   2.036   2.043   2.146   2.145   2.262   2.057   2.259   2.308
   125.00    1.937   1.954   1.937   2.071   1.988   2.063   2.086   2.198   2.158   2.143   2.033
   110.00    2.049   2.036   1.896   1.814   1.864   2.042   2.031   2.212   2.071   2.072   1.949
    95.00    1.974   1.893   1.704   1.779   1.925   1.925   1.988   2.043   2.046   1.874   1.762
    80.00    1.745   1.834   1.813   1.813   1.772   1.923   2.050   2.102   2.083   2.014   1.972
    65.00    1.602   1.647   1.740   1.736   1.750   1.798   1.970   2.041   2.131   2.021   2.285
    50.00    1.840   1.893   1.849   1.852   1.803   1.912   1.852   1.964   2.081   2.163   2.142
    35.00    1.880   1.868   1.773   1.739   1.745   1.871   1.938   2.210   2.253   2.111   2.100
    20.00    1.786   1.857   1.809   1.634   1.540   1.755   1.744   2.096   2.151   2.038   2.033
     5.00    1.779   1.784   1.818   1.600   1.644   1.658   1.790   2.011   1.978   1.889   1.902

   Height   Standard deviation at grid points for the v component:
   155.00    1.469   1.469   1.469   1.469   1.469   1.469   1.469   1.469   1.469   1.469   1.469
   140.00    1.469   1.469   1.469   1.469   1.469   1.469   1.469   1.469   1.469   1.469   1.469
   125.00    1.469   1.469   1.469   1.469   1.469   1.469   1.469   1.469   1.469   1.469   1.469
   110.00    1.469   1.469   1.469   1.469   1.469   1.469   1.469   1.469   1.469   1.469   1.469
    95.00    1.469   1.469   1.469   1.469   1.469   1.469   1.469   1.469   1.469   1.469   1.469
    80.00    1.469   1.469   1.469   1.469   1.469   1.469   1.469   1.469   1.469   1.469   1.469
    65.00    1.469   1.469   1.469   1.469   1.469   1.469   1.469   1.469   1.469   1.469   1.469
    50.00    1.469   1.469   1.469   1.469   1.469   1.469   1.469   1.469   1.469   1.469   1.469
    35.00    1.469   1.469   1.469   1.469   1.469   1.469   1.469   1.469   1.469   1.469   1.469
    20.00    1.469   1.469   1.469   1.469   1.469   1.469   1.469   1.469   1.469   1.469   1.469
     5.00    1.469   1.469   1.469   1.469   1.469   1.469   1.469   1.469   1.469   1.469   1.469

   Height   Standard deviation at grid points for the w component:
   155.00    0.927   0.927   0.927   0.927   0.927   0.927   0.927   0.927   0.927   0.927   0.927
   140.00    0.927   0.927   0.927   0.927   0.927   0.927   0.927   0.927   0.927   0.927   0.927
   125.00    0.927   0.927   0.927   0.927   0.927   0.927   0.927   0.927   0.927   0.927   0.927
   110.00    0.927   0.927   0.927   0.927   0.927   0.927   0.927   0.927   0.927   0.927   0.927
    95.00    0.927   0.927   0.927   0.927   0.927   0.927   0.927   0.927   0.927   0.927   0.927
    80.00    0.927   0.927   0.927   0.927   0.927   0.927   0.927   0.927   0.927   0.927   0.927
    65.00    0.927   0.927   0.927   0.927   0.927   0.927   0.927   0.927   0.927   0.927   0.927
    50.00    0.927   0.927   0.927   0.927   0.927   0.927   0.927   0.927   0.927   0.927   0.927
    35.00    0.927   0.927   0.927   0.927   0.927   0.927   0.927   0.927   0.927   0.927   0.927
    20.00    0.927   0.927   0.927   0.927   0.927   0.927   0.927   0.927   0.927   0.927   0.927
     5.00    0.927   0.927   0.927   0.927   0.927   0.927   0.927   0.927   0.927   0.927   0.927

   Mean standard deviation across all grid points:
      u component:    1.953 m/s
      v component:    1.469 m/s
      w component:    0.927 m/s


U-component (X) statistics from the interpolated hub point:

   Mean =  10.2461 m/s
   TI   =  17.7610 %


Normalizing Parameters for Binary Data (approximate statistics):

   UBar  =  10.2485 m/s
   TI(u) =  18.8328 %
   TI(v) =  14.3356 %
   TI(w) =   9.0438 %

   Height Offset =  20.0000 m
   Grid Base     =   5.0000 m

Nyquist frequency of turbulent wind field =        50.000 Hz


Processing complete.  8.7344 CPU seconds used.
