
This summary file was generated by TurbSim (v1.06.00, 21-Sep-2012) on 04-Oct-2016 at 12:19:13.


Runtime Options:

   2318573  Random seed #1
    RANLUX  Type of random number generator
         F  Output binary HH turbulence parameters?
         F  Output formatted turbulence parameters?
         F  Output AeroDyn HH files?
         F  Output AeroDyn FF files?
         T  Output BLADED FF files?
         F  Output tower data?
         F  Output formatted FF files?
         F  Output coherent turbulence time step file?
         T  Clockwise rotation when looking downwind?
 0 -  NONE  IEC turbulence models scaled to exact specified standard deviation


Turbine/Model Specifications:

        11  Vertical grid-point matrix dimension
        11  Horizontal grid-point matrix dimension
     0.010  Time step [seconds]
   630.000  Analysis time [seconds]
   630.000  Usable output time [seconds]
   100.000  Hub height [m]
   150.000  Grid height [m]
   110.000  Grid width [m]
     0.000  Vertical flow angle [degrees]
     0.000  Horizontal flow angle [degrees]


Meteorological Boundary Conditions:

    IECKAI  IEC Kaimal spectral model
         1  IEC standard: IEC 61400-1 Ed. 3: 2005
    15.620  Percent turbulence intensity, IEC 61400-1 Ed. 3: 2005
       NTM  IEC Normal Turbulence Model
       N/A  IEC Extreme Turbulence Model (ETM) "c" parameter [m/s]
       PL   Wind profile type
    80.000  Reference height [m]
    15.000  Reference wind speed [m/s]
       N/A  Jet height [m]
     0.110  Power law exponent
     0.030  Surface roughness length [m]


You have requested that the following file(s) be generated:

   TurbSim_ws_wake15_8.wnd (AeroDyn/BLADED full-field wnd file)


Turbulence Simulation Scaling Parameter Summary:

   Turbulence model used                            =  IEC Kaimal
   Turbulence characteristic                        =  User-specified
   IEC standard                                     =  IEC 61400-1 Ed. 3: 2005
   Mean wind speed at hub height                    =   15.373 m/s
   Characteristic value of standard deviation       =    2.401 m/s
   Turbulence scale                                 =   42.000 m
   u-component integral scale                       =  340.200 m
   Coherency scale                                  =  340.200 m
   Characteristic value of hub turbulence intensity =   15.620%
   Gradient Richardson number                       =    0.000

   Wind profile type                                =  Power law
   Power law exponent                               =    0.110
   Mean shear across rotor disk                     =    0.019 (m/s)/m
   Assumed rotor diameter                           =  110.000 m
   Surface roughness length                         =    0.030 m

   Number of time steps in the FFT                  =    63756
   Number of time steps output                      =    63716


Mean Flow Angles:

   Vertical   =   0.0 degrees
   Horizontal =   0.0 degrees

Mean Wind Speed Profile:

   Height    Wind Speed   Horizontal Angle  U-comp (X)   V-comp (Y)   W-comp (Z)
     (m)        (m/s)         (degrees)       (m/s)        (m/s)        (m/s)   
   ------    ----------   ----------------  ----------   ----------   ----------
    155.0       16.13            0.00         16.13         0.00         0.00
    140.0       15.95            0.00         15.95         0.00         0.00
    125.0       15.75            0.00         15.75         0.00         0.00
    110.0       15.53            0.00         15.53         0.00         0.00
    100.0       15.37            0.00         15.37         0.00         0.00
     95.0       15.29            0.00         15.29         0.00         0.00
     80.0       15.00            0.00         15.00         0.00         0.00
     65.0       14.66            0.00         14.66         0.00         0.00
     50.0       14.24            0.00         14.24         0.00         0.00
     35.0       13.70            0.00         13.70         0.00         0.00
     20.0       12.88            0.00         12.88         0.00         0.00
      5.0       11.06            0.00         11.06         0.00         0.00


Harvested Random Seeds after Generation of the Random Numbers:

    108409009 K1
            0 K2


Hub-Height Simulated Turbulence Statistical Summary:

   Type of Wind        Min (m/s)   Mean (m/s)    Max (m/s)  Sigma (m/s)       TI (%)
   ----------------    ---------   ----------    ---------  -----------       ------
   Longitudinal (u)         7.90        15.37        22.67        2.115       13.756
   Lateral (v)             -7.20         0.00         6.86        1.893       12.316
   Vertical (w)            -4.51         0.00         4.42        1.188        7.729
   U component              7.90        15.37        22.67        2.115       13.756
   V component             -7.20         0.00         6.86        1.893       12.316
   W component             -4.51         0.00         4.42        1.188        7.729
   Horizontal (U&V)         7.96        15.49        22.69        2.110       13.619
   Total                    8.05        15.54        22.75        2.102       13.528

                       Min Reynolds     Mean Reynolds    Max Reynolds    Correlation
   Product             Stress (m/s)^2   Stress (m/s)^2   Stress (m/s)^2  Coefficient
   ----------------    --------------   --------------   --------------  -----------
   u'w'                    -18.278             0.221            20.142         0.088
   u'v'                    -20.686             0.021            23.350         0.005
   v'w'                    -16.834             0.156            22.048         0.069


   Friction Velocity (Ustar)  =      0.470 m/s
   Maximum Instantaneous TKE  =     31.407 (m/s)^2
   Maximum Instantaneous CTKE =     13.053 (m/s)^2


Grid Point Variance Summary:

   Y-coord  -55.00  -44.00  -33.00  -22.00  -11.00    0.00   11.00   22.00   33.00   44.00   55.00

   Height   Standard deviation at grid points for the u component:
   155.00    2.317   2.384   2.464   2.344   2.306   2.472   2.321   2.027   1.926   2.211   2.168
   140.00    2.433   2.401   2.507   2.283   2.399   2.456   2.288   2.273   2.322   2.264   2.130
   125.00    2.462   2.495   2.381   2.247   2.369   2.269   2.299   2.192   2.166   2.236   2.140
   110.00    2.498   2.379   2.352   2.360   2.460   2.308   2.345   2.188   2.088   2.079   2.109
    95.00    2.391   2.315   2.162   2.288   2.229   2.120   2.310   2.221   2.112   2.031   2.148
    80.00    2.352   2.334   2.219   2.264   2.243   2.204   2.178   2.208   2.162   2.241   2.156
    65.00    2.258   2.149   2.224   2.039   2.198   2.258   2.253   2.365   2.132   2.247   2.336
    50.00    2.043   2.102   2.104   2.057   2.173   2.230   2.307   2.294   2.128   2.034   2.139
    35.00    2.016   2.178   2.225   2.260   2.532   2.394   2.333   2.193   2.227   2.306   2.417
    20.00    2.286   2.254   2.569   2.540   2.543   2.613   2.398   2.427   2.475   2.312   2.253
     5.00    2.318   2.244   2.403   2.508   2.536   2.597   2.554   2.578   2.263   2.325   2.319

   Height   Standard deviation at grid points for the v component:
   155.00    1.893   1.893   1.893   1.893   1.893   1.893   1.893   1.893   1.893   1.893   1.893
   140.00    1.893   1.893   1.893   1.893   1.893   1.893   1.893   1.893   1.893   1.893   1.893
   125.00    1.893   1.893   1.893   1.893   1.893   1.893   1.893   1.893   1.893   1.893   1.893
   110.00    1.893   1.893   1.893   1.893   1.893   1.893   1.893   1.893   1.893   1.893   1.893
    95.00    1.893   1.893   1.893   1.893   1.893   1.893   1.893   1.893   1.893   1.893   1.893
    80.00    1.893   1.893   1.893   1.893   1.893   1.893   1.893   1.893   1.893   1.893   1.893
    65.00    1.893   1.893   1.893   1.893   1.893   1.893   1.893   1.893   1.893   1.893   1.893
    50.00    1.893   1.893   1.893   1.893   1.893   1.893   1.893   1.893   1.893   1.893   1.893
    35.00    1.893   1.893   1.893   1.893   1.893   1.893   1.893   1.893   1.893   1.893   1.893
    20.00    1.893   1.893   1.893   1.893   1.893   1.893   1.893   1.893   1.893   1.893   1.893
     5.00    1.893   1.893   1.893   1.893   1.893   1.893   1.893   1.893   1.893   1.893   1.893

   Height   Standard deviation at grid points for the w component:
   155.00    1.188   1.188   1.188   1.188   1.188   1.188   1.188   1.188   1.188   1.188   1.188
   140.00    1.188   1.188   1.188   1.188   1.188   1.188   1.188   1.188   1.188   1.188   1.188
   125.00    1.188   1.188   1.188   1.188   1.188   1.188   1.188   1.188   1.188   1.188   1.188
   110.00    1.188   1.188   1.188   1.188   1.188   1.188   1.188   1.188   1.188   1.188   1.188
    95.00    1.188   1.188   1.188   1.188   1.188   1.188   1.188   1.188   1.188   1.188   1.188
    80.00    1.188   1.188   1.188   1.188   1.188   1.188   1.188   1.188   1.188   1.188   1.188
    65.00    1.188   1.188   1.188   1.188   1.188   1.188   1.188   1.188   1.188   1.188   1.188
    50.00    1.188   1.188   1.188   1.188   1.188   1.188   1.188   1.188   1.188   1.188   1.188
    35.00    1.188   1.188   1.188   1.188   1.188   1.188   1.188   1.188   1.188   1.188   1.188
    20.00    1.188   1.188   1.188   1.188   1.188   1.188   1.188   1.188   1.188   1.188   1.188
     5.00    1.188   1.188   1.188   1.188   1.188   1.188   1.188   1.188   1.188   1.188   1.188

   Mean standard deviation across all grid points:
      u component:    2.285 m/s
      v component:    1.893 m/s
      w component:    1.188 m/s


U-component (X) statistics from the interpolated hub point:

   Mean =  15.3691 m/s
   TI   =  12.9838 %


Normalizing Parameters for Binary Data (approximate statistics):

   UBar  =  15.3727 m/s
   TI(u) =  13.7564 %
   TI(v) =  12.3161 %
   TI(w) =   7.7288 %

   Height Offset =  20.0000 m
   Grid Base     =   5.0000 m

Nyquist frequency of turbulent wind field =        50.000 Hz


Processing complete.  9.25 CPU seconds used.
