
This summary file was generated by TurbSim (v1.06.00, 21-Sep-2012) on 04-Oct-2016 at 12:19:28.


Runtime Options:

   2318573  Random seed #1
    RANLUX  Type of random number generator
         F  Output binary HH turbulence parameters?
         F  Output formatted turbulence parameters?
         F  Output AeroDyn HH files?
         F  Output AeroDyn FF files?
         T  Output BLADED FF files?
         F  Output tower data?
         F  Output formatted FF files?
         F  Output coherent turbulence time step file?
         T  Clockwise rotation when looking downwind?
 0 -  NONE  IEC turbulence models scaled to exact specified standard deviation


Turbine/Model Specifications:

        11  Vertical grid-point matrix dimension
        11  Horizontal grid-point matrix dimension
     0.010  Time step [seconds]
   630.000  Analysis time [seconds]
   630.000  Usable output time [seconds]
   100.000  Hub height [m]
   150.000  Grid height [m]
   110.000  Grid width [m]
     0.000  Vertical flow angle [degrees]
     0.000  Horizontal flow angle [degrees]


Meteorological Boundary Conditions:

    IECKAI  IEC Kaimal spectral model
         1  IEC standard: IEC 61400-1 Ed. 3: 2005
    13.490  Percent turbulence intensity, IEC 61400-1 Ed. 3: 2005
       NTM  IEC Normal Turbulence Model
       N/A  IEC Extreme Turbulence Model (ETM) "c" parameter [m/s]
       PL   Wind profile type
    80.000  Reference height [m]
    25.000  Reference wind speed [m/s]
       N/A  Jet height [m]
     0.110  Power law exponent
     0.030  Surface roughness length [m]


You have requested that the following file(s) be generated:

   TurbSim_ws_wake25_8.wnd (AeroDyn/BLADED full-field wnd file)


Turbulence Simulation Scaling Parameter Summary:

   Turbulence model used                            =  IEC Kaimal
   Turbulence characteristic                        =  User-specified
   IEC standard                                     =  IEC 61400-1 Ed. 3: 2005
   Mean wind speed at hub height                    =   25.621 m/s
   Characteristic value of standard deviation       =    3.456 m/s
   Turbulence scale                                 =   42.000 m
   u-component integral scale                       =  340.200 m
   Coherency scale                                  =  340.200 m
   Characteristic value of hub turbulence intensity =   13.490%
   Gradient Richardson number                       =    0.000

   Wind profile type                                =  Power law
   Power law exponent                               =    0.110
   Mean shear across rotor disk                     =    0.031 (m/s)/m
   Assumed rotor diameter                           =  110.000 m
   Surface roughness length                         =    0.030 m

   Number of time steps in the FFT                  =    63480
   Number of time steps output                      =    63430


Mean Flow Angles:

   Vertical   =   0.0 degrees
   Horizontal =   0.0 degrees

Mean Wind Speed Profile:

   Height    Wind Speed   Horizontal Angle  U-comp (X)   V-comp (Y)   W-comp (Z)
     (m)        (m/s)         (degrees)       (m/s)        (m/s)        (m/s)   
   ------    ----------   ----------------  ----------   ----------   ----------
    155.0       26.89            0.00         26.89         0.00         0.00
    140.0       26.59            0.00         26.59         0.00         0.00
    125.0       26.26            0.00         26.26         0.00         0.00
    110.0       25.89            0.00         25.89         0.00         0.00
    100.0       25.62            0.00         25.62         0.00         0.00
     95.0       25.48            0.00         25.48         0.00         0.00
     80.0       25.00            0.00         25.00         0.00         0.00
     65.0       24.44            0.00         24.44         0.00         0.00
     50.0       23.74            0.00         23.74         0.00         0.00
     35.0       22.83            0.00         22.83         0.00         0.00
     20.0       21.46            0.00         21.46         0.00         0.00
      5.0       18.43            0.00         18.43         0.00         0.00


Harvested Random Seeds after Generation of the Random Numbers:

    107939805 K1
            0 K2


Hub-Height Simulated Turbulence Statistical Summary:

   Type of Wind        Min (m/s)   Mean (m/s)    Max (m/s)  Sigma (m/s)       TI (%)
   ----------------    ---------   ----------    ---------  -----------       ------
   Longitudinal (u)        13.66        25.62        37.77        3.218       12.559
   Lateral (v)            -12.66         0.00        10.19        2.734       10.672
   Vertical (w)            -6.64         0.00         6.92        1.707        6.662
   U component             13.66        25.62        37.77        3.218       12.559
   V component            -12.66         0.00        10.19        2.734       10.672
   W component             -6.64         0.00         6.92        1.707        6.662
   Horizontal (U&V)        13.90        25.77        37.77        3.207       12.445
   Total                   13.94        25.82        37.79        3.205       12.409

                       Min Reynolds     Mean Reynolds    Max Reynolds    Correlation
   Product             Stress (m/s)^2   Stress (m/s)^2   Stress (m/s)^2  Coefficient
   ----------------    --------------   --------------   --------------  -----------
   u'w'                    -45.969            -0.180            43.292        -0.033
   u'v'                    -70.232            -0.931            68.830        -0.106
   v'w'                    -32.804             0.457            35.813         0.098


   Friction Velocity (Ustar)  =      0.424 m/s
   Maximum Instantaneous TKE  =     80.337 (m/s)^2
   Maximum Instantaneous CTKE =     36.371 (m/s)^2


Grid Point Variance Summary:

   Y-coord  -55.00  -44.00  -33.00  -22.00  -11.00    0.00   11.00   22.00   33.00   44.00   55.00

   Height   Standard deviation at grid points for the u component:
   155.00    3.306   3.265   3.353   3.326   3.224   3.193   3.076   3.174   2.997   3.120   3.122
   140.00    3.229   3.122   3.286   3.066   2.969   3.148   3.101   3.103   2.994   2.942   3.075
   125.00    3.270   3.109   3.070   2.936   3.128   3.178   3.101   2.988   3.147   2.938   3.060
   110.00    3.351   3.317   3.115   3.200   3.170   3.224   3.149   3.117   3.192   3.203   3.293
    95.00    3.289   3.322   3.414   3.332   3.236   3.189   3.147   2.998   3.086   3.321   3.365
    80.00    3.174   3.021   3.253   3.238   3.318   3.056   3.133   2.991   3.220   3.291   3.474
    65.00    3.168   3.102   3.058   3.090   3.231   3.272   3.261   3.166   3.305   3.462   3.501
    50.00    3.587   3.511   3.386   3.523   3.356   3.270   3.283   3.221   3.369   3.589   3.517
    35.00    3.632   3.534   3.775   3.587   3.610   3.646   3.554   3.461   3.582   3.547   3.595
    20.00    3.573   3.671   3.544   3.827   3.740   3.659   3.566   3.620   3.474   3.599   3.483
     5.00    3.379   3.530   3.670   3.679   3.675   3.749   3.558   3.723   3.694   3.503   3.455

   Height   Standard deviation at grid points for the v component:
   155.00    2.734   2.734   2.734   2.734   2.734   2.734   2.734   2.734   2.734   2.734   2.734
   140.00    2.734   2.734   2.734   2.734   2.734   2.734   2.734   2.734   2.734   2.734   2.734
   125.00    2.734   2.734   2.734   2.734   2.734   2.734   2.734   2.734   2.734   2.734   2.734
   110.00    2.734   2.734   2.734   2.734   2.734   2.734   2.734   2.734   2.734   2.734   2.734
    95.00    2.734   2.734   2.734   2.734   2.734   2.734   2.734   2.734   2.734   2.734   2.734
    80.00    2.734   2.734   2.734   2.734   2.734   2.734   2.734   2.734   2.734   2.734   2.734
    65.00    2.734   2.734   2.734   2.734   2.734   2.734   2.734   2.734   2.734   2.734   2.734
    50.00    2.734   2.734   2.734   2.734   2.734   2.734   2.734   2.734   2.734   2.734   2.734
    35.00    2.734   2.734   2.734   2.734   2.734   2.734   2.734   2.734   2.734   2.734   2.734
    20.00    2.734   2.734   2.734   2.734   2.734   2.734   2.734   2.734   2.734   2.734   2.734
     5.00    2.734   2.734   2.734   2.734   2.734   2.734   2.734   2.734   2.734   2.734   2.734

   Height   Standard deviation at grid points for the w component:
   155.00    1.707   1.707   1.707   1.707   1.707   1.707   1.707   1.707   1.707   1.707   1.707
   140.00    1.707   1.707   1.707   1.707   1.707   1.707   1.707   1.707   1.707   1.707   1.707
   125.00    1.707   1.707   1.707   1.707   1.707   1.707   1.707   1.707   1.707   1.707   1.707
   110.00    1.707   1.707   1.707   1.707   1.707   1.707   1.707   1.707   1.707   1.707   1.707
    95.00    1.707   1.707   1.707   1.707   1.707   1.707   1.707   1.707   1.707   1.707   1.707
    80.00    1.707   1.707   1.707   1.707   1.707   1.707   1.707   1.707   1.707   1.707   1.707
    65.00    1.707   1.707   1.707   1.707   1.707   1.707   1.707   1.707   1.707   1.707   1.707
    50.00    1.707   1.707   1.707   1.707   1.707   1.707   1.707   1.707   1.707   1.707   1.707
    35.00    1.707   1.707   1.707   1.707   1.707   1.707   1.707   1.707   1.707   1.707   1.707
    20.00    1.707   1.707   1.707   1.707   1.707   1.707   1.707   1.707   1.707   1.707   1.707
     5.00    1.707   1.707   1.707   1.707   1.707   1.707   1.707   1.707   1.707   1.707   1.707

   Mean standard deviation across all grid points:
      u component:    3.318 m/s
      v component:    2.734 m/s
      w component:    1.707 m/s


U-component (X) statistics from the interpolated hub point:

   Mean =  25.6151 m/s
   TI   =  11.4260 %


Normalizing Parameters for Binary Data (approximate statistics):

   UBar  =  25.6212 m/s
   TI(u) =  12.5587 %
   TI(v) =  10.6723 %
   TI(w) =   6.6618 %

   Height Offset =  20.0000 m
   Grid Base     =   5.0000 m

Nyquist frequency of turbulent wind field =        50.000 Hz


Processing complete.  9.3594 CPU seconds used.
