
These predictions were generated by FAST (v7.01.00a-bjj, 16-Feb-2012) on 14-Jul-2016 at 11:25:53.
The aerodynamic calculations were made by AeroDyn (v13.00.01a-bjj, 16-Feb-2012).

 Test file with data from WindPACT 1.5 MW turbine. LVT July 2014

Time	WindVxi	WindVyi	WindVzi	RootFxc2	RootFyc2	RootFzc2	RootMxc2	RootMyc2	RootMzc2	RootMFlp2	RootMedg2	RotThrust	RotSpeed	TwrBsFxt	TwrBsFyt	TwrBsFzt	TwrBsMxt	TwrBsMyt	TwrBsMzt	GenPwr	GenTq	BldPitch2
(s)	(m/s)	(m/s)	(m/s)	(kN)	(kN)	(kN)	(kN·m)	(kN·m)	(kN·m)	(kN·m)	(kN·m)	(kN)	(rpm)	(kN)	(kN)	(kN)	(kN·m)	(kN·m)	(kN·m)	(kW)	(kN·m)	(deg)
  60.000	 5.129E+00	 8.261E-01	 3.663E-01	 2.409E+01	-4.145E+01	 5.333E+01	 5.195E+02	 4.913E+02	-4.077E-01	 5.143E+02	 4.967E+02	 7.707E+01	 9.987E+00	 4.961E+01	 8.417E-01	-1.978E+03	 1.243E+02	 3.255E+03	 7.470E+01	 1.744E+02	 1.995E+00	 2.600E+00
  60.050	 5.224E+00	 7.771E-01	 4.254E-01	 2.494E+01	-4.191E+01	 5.534E+01	 5.259E+02	 5.018E+02	-3.780E-01	 5.251E+02	 5.026E+02	 7.893E+01	 9.994E+00	 5.188E+01	 1.348E+00	-1.979E+03	 9.164E+01	 3.339E+03	 7.739E+01	 1.747E+02	 1.997E+00	 2.600E+00
  60.100	 5.272E+00	 1.076E+00	 3.254E-01	 2.571E+01	-4.259E+01	 5.735E+01	 5.341E+02	 5.117E+02	-3.010E-01	 5.354E+02	 5.104E+02	 7.890E+01	 1.000E+01	 5.295E+01	 1.662E+00	-1.979E+03	 6.408E+01	 3.393E+03	 8.889E+01	 1.750E+02	 2.000E+00	 2.600E+00
  60.150	 5.105E+00	 9.551E-01	 4.408E-01	 2.581E+01	-4.264E+01	 5.938E+01	 5.367E+02	 5.101E+02	-2.892E-01	 5.339E+02	 5.130E+02	 7.872E+01	 1.000E+01	 5.227E+01	 2.147E+00	-1.979E+03	 3.684E+01	 3.403E+03	 8.944E+01	 1.752E+02	 2.002E+00	 2.600E+00
  60.200	 5.110E+00	 7.177E-01	 4.312E-01	 2.588E+01	-4.243E+01	 6.141E+01	 5.368E+02	 5.089E+02	-3.183E-01	 5.327E+02	 5.131E+02	 7.831E+01	 1.001E+01	 5.100E+01	 2.406E+00	-1.979E+03	 1.740E+01	 3.396E+03	 9.557E+01	 1.754E+02	 2.003E+00	 2.600E+00
  60.250	 5.045E+00	 8.040E-01	 1.895E-01	 2.364E+01	-4.167E+01	 6.342E+01	 5.309E+02	 4.898E+02	-9.480E-01	 5.134E+02	 5.081E+02	 7.747E+01	 1.001E+01	 5.021E+01	 2.271E+00	-1.978E+03	 7.652E+00	 3.404E+03	 7.076E+01	 1.757E+02	 2.005E+00	 2.600E+00
  60.300	 5.177E+00	 5.356E-01	 3.431E-01	 2.505E+01	-4.201E+01	 6.540E+01	 5.310E+02	 4.963E+02	-3.106E-01	 5.198E+02	 5.080E+02	 7.833E+01	 1.002E+01	 5.047E+01	 2.175E+00	-1.979E+03	-1.655E+00	 3.446E+03	 8.237E+01	 1.761E+02	 2.008E+00	 2.600E+00
  60.350	 5.245E+00	 4.260E-01	 1.886E-01	 2.405E+01	-4.106E+01	 6.737E+01	 5.203E+02	 4.865E+02	-3.147E-01	 5.096E+02	 4.977E+02	 7.773E+01	 1.003E+01	 5.219E+01	 2.668E+00	-1.979E+03	-2.172E+01	 3.528E+03	 7.950E+01	 1.764E+02	 2.010E+00	 2.600E+00
  60.400	 5.304E+00	 5.967E-01	 2.847E-01	 2.377E+01	-4.042E+01	 6.936E+01	 5.090E+02	 4.792E+02	-2.514E-01	 5.018E+02	 4.867E+02	 7.652E+01	 1.003E+01	 5.392E+01	 3.065E+00	-1.978E+03	-3.842E+01	 3.614E+03	 8.892E+01	 1.766E+02	 2.012E+00	 2.600E+00
  60.450	 5.195E+00	 4.586E-01	 2.021E-02	 2.408E+01	-3.984E+01	 7.133E+01	 4.987E+02	 4.780E+02	-1.779E-01	 5.001E+02	 4.766E+02	 7.588E+01	 1.003E+01	 5.453E+01	 3.102E+00	-1.978E+03	-4.445E+01	 3.672E+03	 1.020E+02	 1.767E+02	 2.013E+00	 2.600E+00
  60.500	 5.301E+00	 3.827E-01	-1.360E-01	 2.325E+01	-3.859E+01	 7.323E+01	 4.841E+02	 4.666E+02	-3.449E-01	 4.881E+02	 4.625E+02	 7.578E+01	 1.003E+01	 5.453E+01	 3.115E+00	-1.978E+03	-4.566E+01	 3.709E+03	 9.907E+01	 1.768E+02	 2.013E+00	 2.600E+00
  60.550	 5.287E+00	 4.904E-01	-1.792E-01	 2.277E+01	-3.763E+01	 7.506E+01	 4.719E+02	 4.574E+02	-7.927E-02	 4.783E+02	 4.507E+02	 7.665E+01	 1.004E+01	 5.398E+01	 2.979E+00	-1.978E+03	-4.055E+01	 3.728E+03	 9.115E+01	 1.769E+02	 2.015E+00	 2.600E+00
  60.600	 5.077E+00	 7.821E-01	-1.302E-01	 2.325E+01	-3.685E+01	 7.692E+01	 4.611E+02	 4.590E+02	 5.194E-02	 4.795E+02	 4.398E+02	 7.760E+01	 1.004E+01	 5.324E+01	 2.953E+00	-1.978E+03	-3.458E+01	 3.747E+03	 9.084E+01	 1.772E+02	 2.016E+00	 2.600E+00
  60.650	 4.949E+00	 7.173E-01	 3.418E-02	 2.234E+01	-3.557E+01	 7.870E+01	 4.466E+02	 4.510E+02	 3.170E-02	 4.708E+02	 4.257E+02	 7.799E+01	 1.004E+01	 5.420E+01	 3.004E+00	-1.978E+03	-2.670E+01	 3.805E+03	 8.632E+01	 1.773E+02	 2.018E+00	 2.600E+00
  60.700	 5.087E+00	 1.039E+00	 2.383E-01	 2.231E+01	-3.458E+01	 8.045E+01	 4.357E+02	 4.525E+02	 1.487E-03	 4.718E+02	 4.147E+02	 7.752E+01	 1.004E+01	 5.546E+01	 2.798E+00	-1.979E+03	-8.970E+00	 3.876E+03	 9.413E+01	 1.774E+02	 2.018E+00	 2.600E+00
  60.750	 4.944E+00	 1.045E+00	 4.179E-01	 2.288E+01	-3.357E+01	 8.211E+01	 4.243E+02	 4.583E+02	 1.791E-01	 4.770E+02	 4.031E+02	 7.885E+01	 1.005E+01	 5.709E+01	 2.347E+00	-1.979E+03	 1.834E+01	 3.955E+03	 1.007E+02	 1.775E+02	 2.019E+00	 2.600E+00
  60.800	 5.155E+00	 9.956E-01	 5.103E-01	 2.308E+01	-3.242E+01	 8.368E+01	 4.107E+02	 4.630E+02	 1.306E-01	 4.812E+02	 3.893E+02	 7.878E+01	 1.005E+01	 5.797E+01	 1.820E+00	-1.979E+03	 5.051E+01	 4.015E+03	 9.873E+01	 1.777E+02	 2.020E+00	 2.600E+00
  60.850	 4.984E+00	 1.104E+00	 7.272E-01	 2.338E+01	-3.093E+01	 8.517E+01	 3.932E+02	 4.701E+02	 1.197E-01	 4.874E+02	 3.715E+02	 7.989E+01	 1.005E+01	 5.833E+01	 1.433E+00	-1.979E+03	 8.179E+01	 4.058E+03	 9.107E+01	 1.779E+02	 2.022E+00	 2.600E+00
  60.900	 5.043E+00	 9.864E-01	 6.089E-01	 2.345E+01	-2.912E+01	 8.657E+01	 3.713E+02	 4.733E+02	 2.171E-01	 4.897E+02	 3.495E+02	 8.142E+01	 1.006E+01	 5.871E+01	 1.098E+00	-1.979E+03	 1.130E+02	 4.096E+03	 8.089E+01	 1.781E+02	 2.023E+00	 2.600E+00
  60.950	 4.966E+00	 1.043E+00	 6.140E-01	 2.387E+01	-2.774E+01	 8.790E+01	 3.508E+02	 4.747E+02	 4.247E-01	 4.901E+02	 3.289E+02	 8.113E+01	 1.006E+01	 5.897E+01	 5.756E-01	-1.978E+03	 1.486E+02	 4.133E+03	 8.424E+01	 1.782E+02	 2.024E+00	 2.600E+00
  61.000	 4.865E+00	 9.599E-01	 3.540E-01	 2.343E+01	-2.573E+01	 8.918E+01	 3.260E+02	 4.652E+02	 5.287E-01	 4.795E+02	 3.046E+02	 8.085E+01	 1.006E+01	 6.012E+01	 2.188E-01	-1.978E+03	 1.824E+02	 4.189E+03	 7.703E+01	 1.783E+02	 2.025E+00	 2.600E+00
  61.050	 5.091E+00	 8.440E-01	 3.584E-01	 2.306E+01	-2.412E+01	 9.042E+01	 3.047E+02	 4.523E+02	 6.810E-01	 4.657E+02	 2.838E+02	 8.021E+01	 1.006E+01	 6.146E+01	-4.219E-01	-1.978E+03	 2.218E+02	 4.245E+03	 7.027E+01	 1.784E+02	 2.026E+00	 2.600E+00
  61.100	 4.941E+00	 9.726E-01	 3.956E-03	 2.233E+01	-2.230E+01	 9.157E+01	 2.831E+02	 4.375E+02	 9.156E-01	 4.499E+02	 2.629E+02	 8.008E+01	 1.007E+01	 6.212E+01	-7.604E-01	-1.978E+03	 2.552E+02	 4.276E+03	 5.166E+01	 1.785E+02	 2.027E+00	 2.600E+00
  61.150	 4.765E+00	 1.253E+00	-3.461E-02	 2.123E+01	-2.039E+01	 9.262E+01	 2.613E+02	 4.214E+02	 8.076E-01	 4.328E+02	 2.419E+02	 7.895E+01	 1.007E+01	 6.153E+01	-1.030E+00	-1.978E+03	 2.870E+02	 4.268E+03	 3.316E+01	 1.787E+02	 2.028E+00	 2.600E+00
  61.200	 4.653E+00	 1.185E+00	 4.892E-02	 2.158E+01	-1.884E+01	 9.356E+01	 2.437E+02	 4.208E+02	 1.035E+00	 4.315E+02	 2.244E+02	 8.011E+01	 1.007E+01	 6.026E+01	-1.528E+00	-1.978E+03	 3.232E+02	 4.236E+03	 2.883E+01	 1.787E+02	 2.028E+00	 2.600E+00
  61.250	 4.701E+00	 9.320E-01	-6.462E-02	 2.130E+01	-1.704E+01	 9.435E+01	 2.258E+02	 4.202E+02	 1.034E+00	 4.300E+02	 2.065E+02	 7.939E+01	 1.007E+01	 5.952E+01	-2.163E+00	-1.978E+03	 3.615E+02	 4.215E+03	 3.894E+01	 1.788E+02	 2.029E+00	 2.600E+00
  61.300	 4.699E+00	 1.174E+00	 7.845E-02	 2.089E+01	-1.532E+01	 9.506E+01	 2.071E+02	 4.171E+02	 8.447E-01	 4.260E+02	 1.880E+02	 7.792E+01	 1.007E+01	 6.037E+01	-2.778E+00	-1.978E+03	 3.972E+02	 4.229E+03	 5.570E+01	 1.788E+02	 2.029E+00	 2.600E+00
  61.350	 4.819E+00	 1.087E+00	 9.503E-02	 2.124E+01	-1.367E+01	 9.565E+01	 1.888E+02	 4.236E+02	 1.007E+00	 4.317E+02	 1.694E+02	 7.751E+01	 1.007E+01	 6.182E+01	-3.252E+00	-1.978E+03	 4.255E+02	 4.254E+03	 6.598E+01	 1.788E+02	 2.029E+00	 2.600E+00
  61.400	 4.786E+00	 1.030E+00	-9.458E-02	 2.169E+01	-1.153E+01	 9.610E+01	 1.656E+02	 4.363E+02	 1.115E+00	 4.434E+02	 1.457E+02	 7.789E+01	 1.007E+01	 6.276E+01	-3.278E+00	-1.978E+03	 4.392E+02	 4.257E+03	 7.219E+01	 1.789E+02	 2.029E+00	 2.600E+00
  61.450	 4.855E+00	 1.129E+00	-1.622E-01	 2.298E+01	-9.643E+00	 9.643E+01	 1.407E+02	 4.550E+02	 1.150E+00	 4.609E+02	 1.199E+02	 7.812E+01	 1.007E+01	 6.227E+01	-3.149E+00	-1.977E+03	 4.446E+02	 4.217E+03	 6.371E+01	 1.790E+02	 2.030E+00	 2.600E+00
  61.500	 4.953E+00	 1.024E+00	-8.329E-03	 2.428E+01	-7.654E+00	 9.665E+01	 1.136E+02	 4.713E+02	 1.474E+00	 4.760E+02	 9.210E+01	 7.905E+01	 1.008E+01	 6.133E+01	-3.194E+00	-1.978E+03	 4.495E+02	 4.154E+03	 7.428E+01	 1.792E+02	 2.031E+00	 2.600E+00
  61.550	 4.797E+00	 1.040E+00	 2.667E-02	 2.398E+01	-5.132E+00	 9.685E+01	 8.154E+01	 4.694E+02	 1.438E+00	 4.726E+02	 6.016E+01	 7.949E+01	 1.008E+01	 6.066E+01	-3.151E+00	-1.978E+03	 4.500E+02	 4.083E+03	 7.820E+01	 1.794E+02	 2.033E+00	 2.600E+00
  61.600	 4.806E+00	 1.085E+00	 7.971E-02	 2.302E+01	-2.721E+00	 9.699E+01	 4.940E+01	 4.532E+02	 1.461E+00	 4.550E+02	 2.880E+01	 7.974E+01	 1.008E+01	 5.959E+01	-3.231E+00	-1.979E+03	 4.505E+02	 3.991E+03	 7.854E+01	 1.795E+02	 2.034E+00	 2.600E+00
  61.650	 5.033E+00	 9.543E-01	 1.175E-01	 2.205E+01	-3.505E-01	 9.702E+01	 1.990E+01	 4.350E+02	 1.669E+00	 4.354E+02	 1.452E-01	 7.977E+01	 1.009E+01	 5.708E+01	-3.188E+00	-1.979E+03	 4.457E+02	 3.858E+03	 7.857E+01	 1.797E+02	 2.035E+00	 2.600E+00
  61.700	 4.996E+00	 9.345E-01	 1.083E-01	 2.037E+01	 1.807E+00	 9.696E+01	-6.493E+00	 4.107E+02	 1.516E+00	 4.100E+02	-2.512E+01	 7.862E+01	 1.009E+01	 5.361E+01	-3.095E+00	-1.979E+03	 4.365E+02	 3.699E+03	 6.955E+01	 1.799E+02	 2.037E+00	 2.600E+00
  61.750	 4.989E+00	 7.783E-01	 1.292E-01	 2.004E+01	 3.981E+00	 9.680E+01	-3.098E+01	 3.972E+02	 1.784E+00	 3.954E+02	-4.897E+01	 7.956E+01	 1.010E+01	 5.031E+01	-2.703E+00	-1.979E+03	 4.189E+02	 3.548E+03	 6.303E+01	 1.801E+02	 2.039E+00	 2.600E+00
  61.800	 4.937E+00	 7.546E-01	 1.142E-01	 1.884E+01	 5.813E+00	 9.656E+01	-5.308E+01	 3.763E+02	 1.557E+00	 3.735E+02	-7.010E+01	 7.865E+01	 1.010E+01	 4.838E+01	-2.508E+00	-1.978E+03	 4.030E+02	 3.441E+03	 6.152E+01	 1.804E+02	 2.041E+00	 2.600E+00
  61.850	 4.847E+00	 7.952E-01	 3.608E-01	 1.846E+01	 7.841E+00	 9.622E+01	-7.556E+01	 3.645E+02	 1.846E+00	 3.607E+02	-9.202E+01	 7.914E+01	 1.011E+01	 4.807E+01	-2.236E+00	-1.978E+03	 3.848E+02	 3.384E+03	 5.440E+01	 1.807E+02	 2.043E+00	 2.600E+00
  61.900	 4.901E+00	 8.351E-01	 2.887E-01	 1.716E+01	 9.719E+00	 9.574E+01	-9.877E+01	 3.479E+02	 1.516E+00	 3.431E+02	-1.144E+02	 7.688E+01	 1.011E+01	 4.801E+01	-2.210E+00	-1.978E+03	 3.699E+02	 3.348E+03	 6.419E+01	 1.810E+02	 2.045E+00	 2.600E+00
  61.950	 4.744E+00	 1.058E+00	 9.237E-02	 1.772E+01	 1.181E+01	 9.514E+01	-1.231E+02	 3.544E+02	 1.887E+00	 3.484E+02	-1.391E+02	 7.784E+01	 1.012E+01	 4.772E+01	-1.926E+00	-1.979E+03	 3.483E+02	 3.317E+03	 7.528E+01	 1.813E+02	 2.047E+00	 2.600E+00
  62.000	 4.745E+00	 1.034E+00	 2.924E-01	 1.851E+01	 1.359E+01	 9.444E+01	-1.457E+02	 3.709E+02	 1.931E+00	 3.639E+02	-1.624E+02	 7.792E+01	 1.012E+01	 4.745E+01	-1.699E+00	-1.978E+03	 3.250E+02	 3.298E+03	 7.488E+01	 1.816E+02	 2.050E+00	 2.600E+00
  62.050	 4.824E+00	 1.230E+00	 2.462E-01	 2.005E+01	 1.538E+01	 9.361E+01	-1.676E+02	 3.967E+02	 2.059E+00	 3.886E+02	-1.855E+02	 7.851E+01	 1.013E+01	 4.748E+01	-1.050E+00	-1.979E+03	 2.923E+02	 3.301E+03	 8.447E+01	 1.820E+02	 2.053E+00	 2.600E+00
  62.100	 4.799E+00	 1.269E+00	 2.098E-01	 2.040E+01	 1.743E+01	 9.274E+01	-1.896E+02	 4.146E+02	 2.067E+00	 4.056E+02	-2.082E+02	 7.885E+01	 1.013E+01	 4.942E+01	-4.672E-01	-1.979E+03	 2.609E+02	 3.357E+03	 7.458E+01	 1.822E+02	 2.055E+00	 2.600E+00
  62.150	 4.820E+00	 1.240E+00	 3.203E-01	 2.064E+01	 1.916E+01	 9.174E+01	-2.082E+02	 4.285E+02	 2.122E+00	 4.187E+02	-2.275E+02	 7.887E+01	 1.014E+01	 5.173E+01	-3.158E-01	-1.980E+03	 2.395E+02	 3.430E+03	 6.247E+01	 1.824E+02	 2.056E+00	 2.600E+00
  62.200	 4.647E+00	 1.366E+00	 1.685E-01	 2.193E+01	 2.024E+01	 9.062E+01	-2.212E+02	 4.470E+02	 2.216E+00	 4.365E+02	-2.412E+02	 7.719E+01	 1.014E+01	 5.345E+01	-2.923E-01	-1.979E+03	 2.230E+02	 3.491E+03	 2.242E+01	 1.827E+02	 2.058E+00	 2.600E+00
  62.250	 4.668E+00	 1.628E+00	 1.718E-01	 2.230E+01	 2.179E+01	 8.940E+01	-2.350E+02	 4.603E+02	 2.271E+00	 4.491E+02	-2.556E+02	 7.705E+01	 1.015E+01	 5.437E+01	-4.020E-01	-1.978E+03	 2.096E+02	 3.528E+03	 4.082E-01	 1.829E+02	 2.060E+00	 2.600E+00
  62.300	 4.727E+00	 1.420E+00	 3.989E-02	 2.304E+01	 2.293E+01	 8.809E+01	-2.473E+02	 4.673E+02	 2.379E+00	 4.556E+02	-2.683E+02	 7.804E+01	 1.015E+01	 5.438E+01	-3.872E-01	-1.978E+03	 1.916E+02	 3.536E+03	-1.491E+01	 1.831E+02	 2.061E+00	 2.600E+00
  62.350	 4.653E+00	 1.266E+00	-9.407E-02	 2.302E+01	 2.412E+01	 8.668E+01	-2.605E+02	 4.652E+02	 2.477E+00	 4.529E+02	-2.813E+02	 7.851E+01	 1.015E+01	 5.357E+01	-5.707E-02	-1.977E+03	 1.637E+02	 3.519E+03	-2.010E+01	 1.833E+02	 2.063E+00	 2.600E+00
  62.400	 4.528E+00	 1.277E+00	 2.282E-02	 2.172E+01	 2.558E+01	 8.517E+01	-2.773E+02	 4.487E+02	 2.291E+00	 4.356E+02	-2.973E+02	 7.746E+01	 1.016E+01	 5.239E+01	 6.484E-01	-1.977E+03	 1.255E+02	 3.493E+03	-1.170E+01	 1.834E+02	 2.064E+00	 2.600E+00
  62.450	 4.587E+00	 1.131E+00	 7.564E-02	 2.129E+01	 2.696E+01	 8.359E+01	-2.965E+02	 4.298E+02	 2.415E+00	 4.159E+02	-3.157E+02	 7.695E+01	 1.016E+01	 5.153E+01	 1.459E+00	-1.977E+03	 8.524E+01	 3.478E+03	-5.336E-01	 1.835E+02	 2.064E+00	 2.600E+00
  62.500	 4.677E+00	 1.141E+00	 1.009E-01	 2.011E+01	 2.858E+01	 8.202E+01	-3.189E+02	 4.038E+02	 2.431E+00	 3.889E+02	-3.369E+02	 7.615E+01	 1.016E+01	 5.157E+01	 2.034E+00	-1.977E+03	 5.172E+01	 3.487E+03	 2.231E+01	 1.835E+02	 2.064E+00	 2.600E+00
  62.550	 4.619E+00	 1.189E+00	 1.237E-01	 1.849E+01	 3.024E+01	 8.046E+01	-3.425E+02	 3.733E+02	 2.298E+00	 3.573E+02	-3.591E+02	 7.617E+01	 1.016E+01	 5.212E+01	 2.085E+00	-1.978E+03	 3.143E+01	 3.510E+03	 6.302E+01	 1.836E+02	 2.065E+00	 2.600E+00
  62.600	 4.457E+00	 1.159E+00	 1.970E-01	 1.743E+01	 3.177E+01	 7.884E+01	-3.658E+02	 3.445E+02	 2.212E+00	 3.275E+02	-3.810E+02	 7.635E+01	 1.016E+01	 5.250E+01	 2.338E+00	-1.979E+03	 1.001E+01	 3.531E+03	 1.058E+02	 1.837E+02	 2.066E+00	 2.600E+00
  62.650	 4.478E+00	 1.017E+00	 3.856E-02	 1.584E+01	 3.323E+01	 7.715E+01	-3.866E+02	 3.154E+02	 2.189E+00	 2.975E+02	-4.005E+02	 7.651E+01	 1.016E+01	 5.196E+01	 2.724E+00	-1.980E+03	-1.186E+01	 3.532E+03	 1.552E+02	 1.838E+02	 2.066E+00	 2.600E+00
  62.700	 4.549E+00	 1.188E+00	-8.654E-02	 1.561E+01	 3.417E+01	 7.547E+01	-4.012E+02	 3.005E+02	 2.250E+00	 2.820E+02	-4.144E+02	 7.739E+01	 1.017E+01	 5.153E+01	 3.151E+00	-1.980E+03	-3.191E+01	 3.535E+03	 1.815E+02	 1.839E+02	 2.067E+00	 2.600E+00
  62.750	 4.524E+00	 1.258E+00	-2.857E-01	 1.450E+01	 3.503E+01	 7.369E+01	-4.112E+02	 2.880E+02	 2.024E+00	 2.691E+02	-4.238E+02	 7.687E+01	 1.017E+01	 5.114E+01	 3.510E+00	-1.980E+03	-4.593E+01	 3.548E+03	 2.034E+02	 1.840E+02	 2.068E+00	 2.600E+00
  62.800	 4.522E+00	 1.126E+00	-1.115E-01	 1.471E+01	 3.556E+01	 7.187E+01	-4.152E+02	 2.923E+02	 2.164E+00	 2.732E+02	-4.281E+02	 7.658E+01	 1.017E+01	 5.263E+01	 3.614E+00	-1.979E+03	-4.866E+01	 3.609E+03	 1.958E+02	 1.840E+02	 2.068E+00	 2.600E+00
  62.850	 4.537E+00	 1.181E+00	-3.178E-01	 1.627E+01	 3.563E+01	 7.000E+01	-4.134E+02	 3.173E+02	 2.222E+00	 2.983E+02	-4.273E+02	 7.811E+01	 1.017E+01	 5.439E+01	 3.107E+00	-1.979E+03	-3.376E+01	 3.680E+03	 1.677E+02	 1.840E+02	 2.068E+00	 2.600E+00
  62.900	 4.535E+00	 1.239E+00	-8.729E-02	 1.768E+01	 3.577E+01	 6.807E+01	-4.113E+02	 3.469E+02	 2.218E+00	 3.279E+02	-4.267E+02	 7.859E+01	 1.017E+01	 5.615E+01	 2.541E+00	-1.979E+03	-1.449E+01	 3.748E+03	 1.275E+02	 1.842E+02	 2.069E+00	 2.600E+00
  62.950	 4.758E+00	 1.048E+00	-1.323E-01	 1.958E+01	 3.571E+01	 6.604E+01	-4.092E+02	 3.795E+02	 2.429E+00	 3.606E+02	-4.260E+02	 7.923E+01	 1.017E+01	 5.668E+01	 2.210E+00	-1.978E+03	 8.258E-01	 3.783E+03	 7.903E+01	 1.843E+02	 2.070E+00	 2.600E+00
  63.000	 4.795E+00	 9.381E-01	-2.507E-01	 1.966E+01	 3.596E+01	 6.395E+01	-4.104E+02	 3.956E+02	 2.326E+00	 3.766E+02	-4.279E+02	 7.787E+01	 1.017E+01	 5.601E+01	 2.152E+00	-1.978E+03	 1.019E+01	 3.783E+03	 4.786E+01	 1.844E+02	 2.071E+00	 2.600E+00
  63.050	 5.001E+00	 7.779E-01	-4.895E-01	 2.030E+01	 3.626E+01	 6.184E+01	-4.134E+02	 4.119E+02	 2.555E+00	 3.927E+02	-4.317E+02	 7.954E+01	 1.018E+01	 5.490E+01	 2.231E+00	-1.978E+03	 1.719E+01	 3.769E+03	 2.991E+01	 1.844E+02	 2.071E+00	 2.600E+00
  63.100	 4.998E+00	 8.197E-01	-3.793E-01	 2.149E+01	 3.595E+01	 5.976E+01	-4.129E+02	 4.289E+02	 2.708E+00	 4.098E+02	-4.319E+02	 7.919E+01	 1.018E+01	 5.374E+01	 2.239E+00	-1.978E+03	 2.752E+01	 3.756E+03	 3.448E+00	 1.845E+02	 2.072E+00	 2.600E+00
  63.150	 5.092E+00	 1.082E+00	-5.535E-01	 2.226E+01	 3.602E+01	 5.770E+01	-4.145E+02	 4.370E+02	 2.829E+00	 4.178E+02	-4.339E+02	 8.064E+01	 1.018E+01	 5.359E+01	 2.076E+00	-1.978E+03	 4.486E+01	 3.774E+03	-3.991E+00	 1.845E+02	 2.072E+00	 2.600E+00
  63.200	 4.908E+00	 9.977E-01	-4.040E-01	 2.248E+01	 3.571E+01	 5.569E+01	-4.126E+02	 4.333E+02	 2.845E+00	 4.141E+02	-4.319E+02	 8.092E+01	 1.018E+01	 5.465E+01	 1.534E+00	-1.978E+03	 7.302E+01	 3.830E+03	-2.493E+00	 1.846E+02	 2.072E+00	 2.600E+00
  63.250	 4.927E+00	 1.079E+00	-3.919E-01	 2.096E+01	 3.544E+01	 5.371E+01	-4.089E+02	 4.107E+02	 2.685E+00	 3.918E+02	-4.271E+02	 7.804E+01	 1.018E+01	 5.681E+01	 9.192E-01	-1.978E+03	 1.046E+02	 3.914E+03	 1.604E+01	 1.846E+02	 2.072E+00	 2.600E+00
  63.300	 4.734E+00	 1.007E+00	-2.554E-01	 1.946E+01	 3.513E+01	 5.174E+01	-4.040E+02	 3.835E+02	 2.518E+00	 3.648E+02	-4.210E+02	 7.712E+01	 1.018E+01	 5.832E+01	 4.209E-01	-1.978E+03	 1.331E+02	 3.982E+03	 4.960E+01	 1.845E+02	 2.072E+00	 2.600E+00
  63.350	 4.787E+00	 1.013E+00	-2.521E-01	 1.855E+01	 3.469E+01	 4.981E+01	-3.986E+02	 3.574E+02	 2.440E+00	 3.390E+02	-4.144E+02	 7.802E+01	 1.018E+01	 5.867E+01	 3.093E-01	-1.978E+03	 1.514E+02	 4.017E+03	 8.912E+01	 1.845E+02	 2.071E+00	 2.600E+00
  63.400	 4.903E+00	 8.995E-01	-6.123E-02	 1.709E+01	 3.415E+01	 4.791E+01	-3.925E+02	 3.309E+02	 2.299E+00	 3.127E+02	-4.071E+02	 7.864E+01	 1.018E+01	 5.845E+01	 4.514E-01	-1.978E+03	 1.621E+02	 4.035E+03	 1.258E+02	 1.845E+02	 2.072E+00	 2.600E+00
  63.450	 5.221E+00	 7.873E-01	-5.609E-02	 1.592E+01	 3.346E+01	 4.606E+01	-3.853E+02	 3.124E+02	 2.224E+00	 2.946E+02	-3.991E+02	 7.848E+01	 1.018E+01	 5.919E+01	 6.555E-01	-1.978E+03	 1.717E+02	 4.073E+03	 1.480E+02	 1.846E+02	 2.072E+00	 2.600E+00
  63.500	 5.086E+00	 7.973E-01	-3.900E-02	 1.623E+01	 3.272E+01	 4.423E+01	-3.774E+02	 3.142E+02	 2.330E+00	 2.968E+02	-3.913E+02	 7.921E+01	 1.018E+01	 6.128E+01	 6.018E-01	-1.979E+03	 1.894E+02	 4.135E+03	 1.510E+02	 1.847E+02	 2.073E+00	 2.600E+00
  63.550	 5.126E+00	 6.435E-01	-1.120E-01	 1.690E+01	 3.201E+01	 4.246E+01	-3.676E+02	 3.330E+02	 2.383E+00	 3.160E+02	-3.823E+02	 7.926E+01	 1.018E+01	 6.333E+01	 1.497E-01	-1.979E+03	 2.185E+02	 4.185E+03	 1.377E+02	 1.849E+02	 2.075E+00	 2.600E+00
  63.600	 5.306E+00	 7.270E-01	 2.378E-02	 1.809E+01	 3.112E+01	 4.075E+01	-3.551E+02	 3.646E+02	 2.357E+00	 3.481E+02	-3.712E+02	 8.143E+01	 1.019E+01	 6.295E+01	-7.968E-01	-1.980E+03	 2.588E+02	 4.164E+03	 1.108E+02	 1.851E+02	 2.076E+00	 2.600E+00
  63.650	 5.185E+00	 5.174E-01	 1.011E-01	 1.987E+01	 2.951E+01	 3.913E+01	-3.360E+02	 4.042E+02	 2.557E+00	 3.885E+02	-3.540E+02	 8.163E+01	 1.019E+01	 6.042E+01	-1.623E+00	-1.979E+03	 2.943E+02	 4.076E+03	 7.207E+01	 1.854E+02	 2.078E+00	 2.600E+00
  63.700	 5.369E+00	 2.393E-01	 2.904E-01	 2.182E+01	 2.825E+01	 3.754E+01	-3.180E+02	 4.458E+02	 2.636E+00	 4.309E+02	-3.379E+02	 8.379E+01	 1.020E+01	 5.700E+01	-1.878E+00	-1.979E+03	 3.135E+02	 3.961E+03	 4.825E+01	 1.858E+02	 2.081E+00	 2.600E+00
  63.750	 5.516E+00	 3.054E-01	 1.772E-01	 2.416E+01	 2.674E+01	 3.597E+01	-2.966E+02	 4.910E+02	 2.923E+00	 4.770E+02	-3.185E+02	 8.566E+01	 1.021E+01	 5.441E+01	-1.598E+00	-1.979E+03	 3.169E+02	 3.870E+03	 2.328E+01	 1.862E+02	 2.085E+00	 2.600E+00
  63.800	 5.511E+00	 2.300E-01	 1.545E-01	 2.561E+01	 2.491E+01	 3.447E+01	-2.733E+02	 5.239E+02	 2.898E+00	 5.110E+02	-2.968E+02	 8.638E+01	 1.022E+01	 5.329E+01	-1.331E+00	-1.979E+03	 3.172E+02	 3.827E+03	 1.354E+01	 1.868E+02	 2.089E+00	 2.600E+00
  63.850	 5.332E+00	 1.681E-01	 2.272E-01	 2.626E+01	 2.341E+01	 3.304E+01	-2.523E+02	 5.433E+02	 2.756E+00	 5.313E+02	-2.766E+02	 8.713E+01	 1.023E+01	 5.313E+01	-1.184E+00	-1.979E+03	 3.199E+02	 3.825E+03	 2.203E+01	 1.874E+02	 2.094E+00	 2.600E+00
  63.900	 5.485E+00	 2.893E-01	 2.530E-01	 2.656E+01	 2.175E+01	 3.173E+01	-2.313E+02	 5.497E+02	 2.708E+00	 5.386E+02	-2.560E+02	 8.646E+01	 1.024E+01	 5.345E+01	-1.159E+00	-1.979E+03	 3.271E+02	 3.852E+03	 2.262E+01	 1.881E+02	 2.099E+00	 2.600E+00
  63.950	 5.509E+00	 2.308E-01	 9.038E-02	 2.626E+01	 2.024E+01	 3.051E+01	-2.117E+02	 5.438E+02	 2.693E+00	 5.336E+02	-2.362E+02	 8.758E+01	 1.025E+01	 5.429E+01	-1.608E+00	-1.979E+03	 3.452E+02	 3.909E+03	 3.457E+01	 1.887E+02	 2.103E+00	 2.600E+00
  64.000	 5.325E+00	 4.668E-01	 2.035E-01	 2.572E+01	 1.843E+01	 2.944E+01	-1.923E+02	 5.278E+02	 2.703E+00	 5.186E+02	-2.161E+02	 8.701E+01	 1.026E+01	 5.596E+01	-2.090E+00	-1.979E+03	 3.631E+02	 4.000E+03	 5.093E+01	 1.893E+02	 2.108E+00	 2.600E+00
  64.050	 5.537E+00	 5.194E-01	 9.879E-02	 2.431E+01	 1.703E+01	 2.848E+01	-1.770E+02	 4.998E+02	 2.450E+00	 4.912E+02	-1.995E+02	 8.814E+01	 1.028E+01	 5.785E+01	-2.333E+00	-1.980E+03	 3.733E+02	 4.110E+03	 7.266E+01	 1.899E+02	 2.112E+00	 2.600E+00
  64.100	 5.568E+00	 5.844E-01	-1.504E-01	 2.369E+01	 1.510E+01	 2.764E+01	-1.593E+02	 4.702E+02	 2.482E+00	 4.625E+02	-1.805E+02	 8.679E+01	 1.028E+01	 6.059E+01	-2.129E+00	-1.979E+03	 3.712E+02	 4.247E+03	 7.222E+01	 1.904E+02	 2.116E+00	 2.600E+00
  64.150	 5.506E+00	 6.577E-01	 1.367E-02	 2.182E+01	 1.356E+01	 2.692E+01	-1.447E+02	 4.289E+02	 2.246E+00	 4.219E+02	-1.640E+02	 8.605E+01	 1.029E+01	 6.324E+01	-1.865E+00	-1.979E+03	 3.654E+02	 4.387E+03	 8.158E+01	 1.908E+02	 2.119E+00	 2.600E+00
  64.200	 5.755E+00	 5.640E-01	 4.447E-02	 1.976E+01	 1.195E+01	 2.629E+01	-1.283E+02	 3.878E+02	 2.017E+00	 3.816E+02	-1.457E+02	 8.451E+01	 1.030E+01	 6.601E+01	-1.812E+00	-1.979E+03	 3.634E+02	 4.528E+03	 8.258E+01	 1.912E+02	 2.121E+00	 2.600E+00
  64.250	 5.592E+00	 6.771E-01	-7.478E-02	 1.833E+01	 9.920E+00	 2.576E+01	-1.072E+02	 3.572E+02	 1.825E+00	 3.519E+02	-1.233E+02	 8.185E+01	 1.030E+01	 6.897E+01	-2.030E+00	-1.978E+03	 3.660E+02	 4.661E+03	 7.363E+01	 1.914E+02	 2.123E+00	 2.600E+00
  64.300	 5.471E+00	 3.004E-01	 1.637E-01	 1.821E+01	 8.131E+00	 2.528E+01	-8.619E+01	 3.406E+02	 1.834E+00	 3.364E+02	-1.016E+02	 8.217E+01	 1.030E+01	 7.098E+01	-2.211E+00	-1.978E+03	 3.658E+02	 4.753E+03	 7.094E+01	 1.914E+02	 2.123E+00	 2.600E+00
  64.350	 5.587E+00	 2.801E-01	 1.298E-01	 1.788E+01	 5.742E+00	 2.494E+01	-5.860E+01	 3.299E+02	 1.806E+00	 3.269E+02	-7.351E+01	 7.975E+01	 1.030E+01	 7.136E+01	-2.474E+00	-1.978E+03	 3.614E+02	 4.784E+03	 5.813E+01	 1.914E+02	 2.123E+00	 2.600E+00
  64.400	 5.692E+00	 1.304E-01	 2.694E-01	 1.777E+01	 3.612E+00	 2.467E+01	-3.118E+01	 3.275E+02	 1.752E+00	 3.257E+02	-4.601E+01	 7.917E+01	 1.030E+01	 7.028E+01	-2.176E+00	-1.978E+03	 3.399E+02	 4.758E+03	 7.023E+01	 1.915E+02	 2.123E+00	 2.600E+00
  64.450	 5.856E+00	 1.618E-01	 2.134E-01	 1.860E+01	 1.157E+00	 2.445E+01	-1.137E+00	 3.414E+02	 1.839E+00	 3.410E+02	-1.662E+01	 7.882E+01	 1.030E+01	 6.891E+01	-1.496E+00	-1.977E+03	 3.056E+02	 4.703E+03	 7.932E+01	 1.914E+02	 2.123E+00	 2.600E+00
  64.500	 6.018E+00	 1.523E-01	 1.600E-01	 1.892E+01	-9.563E-01	 2.429E+01	 2.736E+01	 3.633E+02	 1.543E+00	 3.641E+02	 1.085E+01	 7.847E+01	 1.030E+01	 6.735E+01	-7.304E-01	-1.978E+03	 2.673E+02	 4.627E+03	 9.107E+01	 1.915E+02	 2.123E+00	 2.600E+00
  64.550	 5.924E+00	 1.173E-01	 3.369E-01	 2.082E+01	-3.069E+00	 2.413E+01	 5.599E+01	 4.037E+02	 1.579E+00	 4.058E+02	 3.762E+01	 8.014E+01	 1.030E+01	 6.615E+01	 1.629E-02	-1.978E+03	 2.303E+02	 4.542E+03	 9.386E+01	 1.914E+02	 2.123E+00	 2.600E+00
  64.600	 6.092E+00	 4.573E-01	 5.757E-01	 2.345E+01	-5.580E+00	 2.405E+01	 8.652E+01	 4.483E+02	 1.655E+00	 4.518E+02	 6.610E+01	 8.221E+01	 1.030E+01	 6.426E+01	 9.033E-02	-1.979E+03	 2.085E+02	 4.428E+03	 9.675E+01	 1.914E+02	 2.123E+00	 2.600E+00
  64.650	 5.925E+00	 1.801E-01	 3.567E-01	 2.438E+01	-7.757E+00	 2.413E+01	 1.144E+02	 4.799E+02	 1.348E+00	 4.846E+02	 9.255E+01	 8.135E+01	 1.030E+01	 6.109E+01	 2.592E-02	-1.978E+03	 1.914E+02	 4.277E+03	 9.822E+01	 1.914E+02	 2.123E+00	 2.600E+00
  64.700	 5.977E+00	 2.198E-01	 5.051E-01	 2.611E+01	-9.889E+00	 2.429E+01	 1.401E+02	 5.096E+02	 1.385E+00	 5.155E+02	 1.169E+02	 8.252E+01	 1.030E+01	 5.761E+01	 1.587E-01	-1.979E+03	 1.702E+02	 4.116E+03	 1.105E+02	 1.915E+02	 2.124E+00	 2.600E+00
  64.750	 5.887E+00	 2.728E-01	 4.866E-01	 2.598E+01	-1.158E+01	 2.460E+01	 1.624E+02	 5.232E+02	 1.159E+00	 5.300E+02	 1.385E+02	 8.306E+01	 1.030E+01	 5.465E+01	 5.970E-01	-1.979E+03	 1.412E+02	 3.978E+03	 1.192E+02	 1.915E+02	 2.124E+00	 2.600E+00
  64.800	 5.811E+00	-2.738E-02	 5.276E-01	 2.668E+01	-1.358E+01	 2.501E+01	 1.850E+02	 5.320E+02	 1.195E+00	 5.399E+02	 1.607E+02	 8.404E+01	 1.031E+01	 5.386E+01	 1.327E+00	-1.979E+03	 1.048E+02	 3.903E+03	 1.320E+02	 1.917E+02	 2.125E+00	 2.600E+00
  64.850	 5.754E+00	-1.423E-01	 4.023E-01	 2.664E+01	-1.558E+01	 2.557E+01	 2.070E+02	 5.270E+02	 1.153E+00	 5.358E+02	 1.829E+02	 8.390E+01	 1.031E+01	 5.503E+01	 1.980E+00	-1.980E+03	 7.096E+01	 3.890E+03	 1.270E+02	 1.918E+02	 2.126E+00	 2.600E+00
  64.900	 5.950E+00	 9.758E-02	 4.711E-01	 2.558E+01	-1.733E+01	 2.629E+01	 2.271E+02	 5.071E+02	 1.087E+00	 5.168E+02	 2.039E+02	 8.339E+01	 1.031E+01	 5.658E+01	 2.427E+00	-1.980E+03	 4.513E+01	 3.898E+03	 1.256E+02	 1.921E+02	 2.128E+00	 2.600E+00
  64.950	 6.173E+00	 4.955E-02	 4.511E-01	 2.459E+01	-1.919E+01	 2.716E+01	 2.485E+02	 4.848E+02	 1.060E+00	 4.955E+02	 2.262E+02	 8.299E+01	 1.032E+01	 5.800E+01	 2.304E+00	-1.980E+03	 3.466E+01	 3.906E+03	 1.120E+02	 1.923E+02	 2.130E+00	 2.600E+00
  65.000	 6.111E+00	 1.602E-01	 1.633E-01	 2.260E+01	-2.081E+01	 2.819E+01	 2.670E+02	 4.518E+02	 8.987E-01	 4.635E+02	 2.462E+02	 8.259E+01	 1.032E+01	 5.822E+01	 2.053E+00	-1.980E+03	 2.914E+01	 3.886E+03	 8.603E+01	 1.926E+02	 2.132E+00	 2.600E+00
  65.050	 5.792E+00	 2.023E-01	 1.260E-01	 2.205E+01	-2.288E+01	 2.930E+01	 2.882E+02	 4.297E+02	 9.545E-01	 4.424E+02	 2.684E+02	 8.255E+01	 1.033E+01	 5.829E+01	 1.831E+00	-1.979E+03	 2.241E+01	 3.858E+03	 6.063E+01	 1.928E+02	 2.134E+00	 2.600E+00
  65.100	 5.981E+00	 2.486E-01	 1.436E-01	 2.147E+01	-2.446E+01	 3.053E+01	 3.069E+02	 4.149E+02	 9.418E-01	 4.284E+02	 2.878E+02	 8.242E+01	 1.033E+01	 5.793E+01	 2.130E+00	-1.979E+03	 3.680E+00	 3.818E+03	 4.174E+01	 1.931E+02	 2.135E+00	 2.600E+00
  65.150	 5.963E+00	 3.519E-01	 2.180E-01	 2.135E+01	-2.613E+01	 3.183E+01	 3.261E+02	 4.091E+02	 8.973E-01	 4.235E+02	 3.072E+02	 8.283E+01	 1.034E+01	 5.748E+01	 2.555E+00	-1.979E+03	-1.947E+01	 3.774E+03	 2.801E+01	 1.933E+02	 2.137E+00	 2.600E+00
  65.200	 6.075E+00	 5.166E-01	 1.232E-01	 2.088E+01	-2.767E+01	 3.321E+01	 3.447E+02	 4.054E+02	 6.878E-01	 4.206E+02	 3.260E+02	 8.224E+01	 1.034E+01	 5.656E+01	 3.004E+00	-1.978E+03	-4.323E+01	 3.719E+03	 2.237E+01	 1.935E+02	 2.139E+00	 2.600E+00
  65.250	 6.114E+00	 4.380E-01	 1.443E-02	 2.143E+01	-2.935E+01	 3.463E+01	 3.648E+02	 4.149E+02	 7.078E-01	 4.310E+02	 3.456E+02	 8.193E+01	 1.034E+01	 5.581E+01	 3.423E+00	-1.978E+03	-6.443E+01	 3.666E+03	 2.563E+01	 1.938E+02	 2.141E+00	 2.600E+00
  65.300	 6.045E+00	 5.889E-01	-5.974E-02	 2.201E+01	-3.099E+01	 3.609E+01	 3.847E+02	 4.310E+02	 7.872E-01	 4.480E+02	 3.648E+02	 8.120E+01	 1.035E+01	 5.509E+01	 3.563E+00	-1.978E+03	-7.685E+01	 3.614E+03	 3.399E+01	 1.940E+02	 2.142E+00	 2.600E+00
  65.350	 6.087E+00	 4.877E-01	 1.200E-01	 2.296E+01	-3.231E+01	 3.767E+01	 4.015E+02	 4.523E+02	 5.120E-01	 4.701E+02	 3.806E+02	 8.198E+01	 1.035E+01	 5.376E+01	 3.555E+00	-1.978E+03	-8.312E+01	 3.552E+03	 4.828E+01	 1.943E+02	 2.144E+00	 2.600E+00
  65.400	 6.106E+00	 2.817E-01	-3.040E-01	 2.506E+01	-3.419E+01	 3.925E+01	 4.228E+02	 4.814E+02	 6.672E-01	 5.001E+02	 4.005E+02	 8.154E+01	 1.036E+01	 5.269E+01	 3.441E+00	-1.979E+03	-8.549E+01	 3.495E+03	 7.026E+01	 1.945E+02	 2.146E+00	 2.600E+00
  65.450	 5.933E+00	 5.839E-02	-5.264E-01	 2.491E+01	-3.532E+01	 4.093E+01	 4.401E+02	 4.918E+02	 3.733E-01	 5.113E+02	 4.173E+02	 7.992E+01	 1.036E+01	 5.106E+01	 3.556E+00	-1.978E+03	-9.066E+01	 3.432E+03	 6.943E+01	 1.946E+02	 2.147E+00	 2.600E+00
  65.500	 5.949E+00	 8.118E-02	-4.226E-01	 2.474E+01	-3.648E+01	 4.267E+01	 4.560E+02	 4.931E+02	 1.015E-01	 5.133E+02	 4.332E+02	 7.954E+01	 1.036E+01	 4.959E+01	 3.813E+00	-1.978E+03	-9.636E+01	 3.381E+03	 5.602E+01	 1.947E+02	 2.148E+00	 2.600E+00
  65.550	 5.726E+00	-1.292E-01	-4.055E-01	 2.471E+01	-3.766E+01	 4.443E+01	 4.728E+02	 4.968E+02	 3.615E-02	 5.177E+02	 4.498E+02	 8.001E+01	 1.036E+01	 4.899E+01	 3.826E+00	-1.979E+03	-9.401E+01	 3.360E+03	 4.178E+01	 1.948E+02	 2.148E+00	 2.600E+00
  65.600	 5.833E+00	-1.054E-01	-1.875E-02	 2.480E+01	-3.890E+01	 4.624E+01	 4.890E+02	 5.004E+02	-7.339E-02	 5.221E+02	 4.657E+02	 7.929E+01	 1.037E+01	 4.908E+01	 3.650E+00	-1.979E+03	-8.411E+01	 3.365E+03	 3.623E+01	 1.951E+02	 2.150E+00	 2.600E+00
  65.650	 5.768E+00	 1.373E-02	 5.388E-02	 2.500E+01	-3.954E+01	 4.814E+01	 4.992E+02	 5.043E+02	-1.709E-01	 5.264E+02	 4.758E+02	 8.013E+01	 1.037E+01	 4.891E+01	 3.593E+00	-1.979E+03	-7.224E+01	 3.374E+03	 3.107E+01	 1.952E+02	 2.151E+00	 2.600E+00
  65.700	 5.680E+00	-2.503E-01	 1.274E-01	 2.507E+01	-4.041E+01	 5.006E+01	 5.094E+02	 5.057E+02	-2.474E-01	 5.283E+02	 4.859E+02	 7.951E+01	 1.037E+01	 4.865E+01	 3.236E+00	-1.979E+03	-5.076E+01	 3.390E+03	 3.112E+01	 1.954E+02	 2.153E+00	 2.600E+00
  65.750	 5.714E+00	-5.188E-01	 4.604E-02	 2.525E+01	-4.094E+01	 5.206E+01	 5.149E+02	 5.043E+02	-2.635E-01	 5.271E+02	 4.915E+02	 8.059E+01	 1.038E+01	 4.821E+01	 2.943E+00	-1.979E+03	-2.652E+01	 3.414E+03	 2.388E+01	 1.957E+02	 2.155E+00	 2.600E+00
  65.800	 5.705E+00	-6.290E-01	 2.728E-01	 2.443E+01	-4.102E+01	 5.415E+01	 5.147E+02	 4.948E+02	-2.882E-01	 5.177E+02	 4.918E+02	 8.166E+01	 1.039E+01	 4.841E+01	 2.773E+00	-1.978E+03	-7.633E-01	 3.470E+03	 6.808E+00	 1.961E+02	 2.157E+00	 2.600E+00
  65.850	 5.582E+00	-6.834E-01	-8.851E-02	 2.465E+01	-4.123E+01	 5.630E+01	 5.146E+02	 4.948E+02	-1.096E-01	 5.176E+02	 4.917E+02	 8.302E+01	 1.039E+01	 4.998E+01	 2.325E+00	-1.978E+03	 3.465E+01	 3.578E+03	 9.153E-01	 1.964E+02	 2.160E+00	 2.600E+00
  65.900	 5.646E+00	-8.751E-01	-1.636E-01	 2.498E+01	-4.123E+01	 5.849E+01	 5.125E+02	 4.976E+02	-2.508E-01	 5.203E+02	 4.894E+02	 8.462E+01	 1.040E+01	 5.368E+01	 1.637E+00	-1.978E+03	 7.787E+01	 3.750E+03	-3.369E+00	 1.968E+02	 2.163E+00	 2.600E+00
  65.950	 5.701E+00	-9.128E-01	 1.082E-01	 2.479E+01	-4.127E+01	 6.073E+01	 5.122E+02	 4.990E+02	-2.756E-01	 5.217E+02	 4.891E+02	 8.533E+01	 1.041E+01	 5.725E+01	 9.719E-01	-1.978E+03	 1.220E+02	 3.932E+03	-1.118E+01	 1.972E+02	 2.166E+00	 2.600E+00
  66.000	 5.360E+00	-9.257E-01	 9.792E-03	 2.550E+01	-4.161E+01	 6.292E+01	 5.144E+02	 5.005E+02	 3.440E-02	 5.233E+02	 4.912E+02	 8.801E+01	 1.041E+01	 6.066E+01	 2.246E-01	-1.979E+03	 1.672E+02	 4.111E+03	-2.272E+01	 1.976E+02	 2.168E+00	 2.600E+00
  66.050	 5.365E+00	-9.599E-01	 1.130E-01	 2.429E+01	-4.146E+01	 6.513E+01	 5.142E+02	 4.876E+02	-2.506E-01	 5.104E+02	 4.915E+02	 8.695E+01	 1.042E+01	 6.299E+01	-2.536E-01	-1.978E+03	 2.058E+02	 4.263E+03	-3.817E+01	 1.979E+02	 2.171E+00	 2.600E+00
  66.100	 5.533E+00	-1.204E+00	 1.673E-01	 2.405E+01	-4.144E+01	 6.729E+01	 5.142E+02	 4.759E+02	-2.219E-01	 4.987E+02	 4.921E+02	 8.619E+01	 1.042E+01	 6.432E+01	-6.097E-01	-1.978E+03	 2.403E+02	 4.387E+03	-4.396E+01	 1.982E+02	 2.173E+00	 2.600E+00
  66.150	 5.476E+00	-1.057E+00	 1.504E-01	 2.442E+01	-4.144E+01	 6.939E+01	 5.140E+02	 4.735E+02	 3.814E-02	 4.963E+02	 4.920E+02	 8.673E+01	 1.043E+01	 6.547E+01	-1.131E+00	-1.978E+03	 2.758E+02	 4.502E+03	-4.147E+01	 1.983E+02	 2.174E+00	 2.600E+00
  66.200	 5.510E+00	-1.244E+00	 7.819E-02	 2.392E+01	-4.108E+01	 7.146E+01	 5.098E+02	 4.656E+02	-5.537E-02	 4.882E+02	 4.881E+02	 8.521E+01	 1.043E+01	 6.695E+01	-1.569E+00	-1.977E+03	 3.076E+02	 4.619E+03	-3.538E+01	 1.985E+02	 2.175E+00	 2.600E+00
  66.250	 5.497E+00	-1.236E+00	-1.206E-01	 2.416E+01	-4.046E+01	 7.353E+01	 5.023E+02	 4.609E+02	 4.205E-02	 4.833E+02	 4.809E+02	 8.503E+01	 1.043E+01	 6.864E+01	-1.798E+00	-1.977E+03	 3.331E+02	 4.732E+03	-2.507E+01	 1.986E+02	 2.176E+00	 2.600E+00
  66.300	 5.318E+00	-1.052E+00	-1.252E-01	 2.290E+01	-3.971E+01	 7.555E+01	 4.940E+02	 4.493E+02	 7.005E-02	 4.713E+02	 4.731E+02	 8.243E+01	 1.043E+01	 6.987E+01	-2.104E+00	-1.977E+03	 3.575E+02	 4.824E+03	-1.715E+01	 1.987E+02	 2.177E+00	 2.600E+00
  66.350	 5.431E+00	-7.619E-01	-1.527E-01	 2.285E+01	-3.880E+01	 7.752E+01	 4.850E+02	 4.519E+02	 2.826E-02	 4.734E+02	 4.640E+02	 8.199E+01	 1.043E+01	 7.069E+01	-2.413E+00	-1.977E+03	 3.788E+02	 4.887E+03	 8.741E+00	 1.988E+02	 2.177E+00	 2.600E+00
  66.400	 5.482E+00	-6.430E-01	 4.354E-02	 2.299E+01	-3.778E+01	 7.943E+01	 4.751E+02	 4.614E+02	-9.498E-02	 4.825E+02	 4.537E+02	 8.134E+01	 1.043E+01	 7.040E+01	-2.460E+00	-1.976E+03	 3.915E+02	 4.907E+03	 4.498E+01	 1.989E+02	 2.178E+00	 2.600E+00
  66.450	 5.376E+00	-8.016E-01	-2.430E-01	 2.389E+01	-3.713E+01	 8.128E+01	 4.683E+02	 4.840E+02	-1.260E-02	 5.048E+02	 4.459E+02	 8.161E+01	 1.044E+01	 6.914E+01	-2.512E+00	-1.976E+03	 4.005E+02	 4.892E+03	 8.095E+01	 1.989E+02	 2.178E+00	 2.600E+00
  66.500	 5.599E+00	-8.948E-01	-3.612E-01	 2.609E+01	-3.636E+01	 8.307E+01	 4.603E+02	 5.175E+02	-1.190E-01	 5.378E+02	 4.364E+02	 8.464E+01	 1.044E+01	 6.842E+01	-2.442E+00	-1.977E+03	 4.040E+02	 4.878E+03	 1.158E+02	 1.990E+02	 2.179E+00	 2.600E+00
  66.550	 5.626E+00	-9.227E-01	-4.661E-01	 2.745E+01	-3.559E+01	 8.475E+01	 4.517E+02	 5.414E+02	 1.103E-01	 5.613E+02	 4.267E+02	 8.601E+01	 1.044E+01	 6.831E+01	-2.376E+00	-1.978E+03	 4.053E+02	 4.877E+03	 1.297E+02	 1.992E+02	 2.180E+00	 2.600E+00
  66.600	 5.450E+00	-8.067E-01	-5.512E-01	 2.695E+01	-3.419E+01	 8.639E+01	 4.372E+02	 5.480E+02	-1.649E-01	 5.673E+02	 4.119E+02	 8.587E+01	 1.044E+01	 6.952E+01	-2.349E+00	-1.978E+03	 4.058E+02	 4.902E+03	 1.238E+02	 1.993E+02	 2.181E+00	 2.600E+00
  66.650	 5.518E+00	-9.775E-01	-3.993E-01	 2.770E+01	-3.308E+01	 8.796E+01	 4.236E+02	 5.561E+02	 1.040E-01	 5.747E+02	 3.980E+02	 8.664E+01	 1.044E+01	 7.070E+01	-2.490E+00	-1.978E+03	 4.079E+02	 4.920E+03	 1.068E+02	 1.994E+02	 2.182E+00	 2.600E+00
  66.700	 5.378E+00	-9.422E-01	-3.004E-01	 2.702E+01	-3.143E+01	 8.948E+01	 4.046E+02	 5.482E+02	 7.341E-02	 5.660E+02	 3.793E+02	 8.771E+01	 1.045E+01	 7.180E+01	-2.771E+00	-1.978E+03	 4.096E+02	 4.920E+03	 7.299E+01	 1.995E+02	 2.182E+00	 2.600E+00
  66.750	 5.669E+00	-8.470E-01	-3.647E-01	 2.599E+01	-2.986E+01	 9.093E+01	 3.856E+02	 5.359E+02	 7.582E-02	 5.528E+02	 3.609E+02	 8.715E+01	 1.045E+01	 7.083E+01	-2.828E+00	-1.978E+03	 4.023E+02	 4.859E+03	 3.883E+01	 1.997E+02	 2.184E+00	 2.600E+00
  66.800	 5.404E+00	-7.332E-01	-5.275E-01	 2.648E+01	-2.819E+01	 9.234E+01	 3.640E+02	 5.290E+02	 2.825E-01	 5.449E+02	 3.397E+02	 8.830E+01	 1.045E+01	 6.802E+01	-2.402E+00	-1.978E+03	 3.807E+02	 4.742E+03	 1.079E+01	 1.998E+02	 2.185E+00	 2.600E+00
  66.850	 5.489E+00	-6.800E-01	-3.772E-01	 2.502E+01	-2.633E+01	 9.363E+01	 3.418E+02	 5.088E+02	 3.263E-01	 5.237E+02	 3.183E+02	 8.651E+01	 1.045E+01	 6.531E+01	-1.988E+00	-1.977E+03	 3.546E+02	 4.621E+03	-5.321E+00	 2.000E+02	 2.186E+00	 2.600E+00
  66.900	 5.541E+00	-3.455E-01	-5.914E-01	 2.433E+01	-2.469E+01	 9.487E+01	 3.205E+02	 4.864E+02	 5.019E-01	 5.004E+02	 2.981E+02	 8.460E+01	 1.045E+01	 6.392E+01	-1.442E+00	-1.977E+03	 3.239E+02	 4.531E+03	-1.626E+01	 2.000E+02	 2.186E+00	 2.600E+00
  66.950	 5.568E+00	-4.340E-01	-5.337E-01	 2.237E+01	-2.278E+01	 9.606E+01	 2.987E+02	 4.562E+02	 6.086E-01	 4.693E+02	 2.777E+02	 8.185E+01	 1.045E+01	 6.444E+01	-1.124E+00	-1.977E+03	 2.970E+02	 4.484E+03	-2.745E+01	 2.001E+02	 2.187E+00	 2.600E+00
  67.000	 5.499E+00	-8.699E-01	-7.284E-01	 2.193E+01	-2.107E+01	 9.719E+01	 2.784E+02	 4.421E+02	 6.968E-01	 4.543E+02	 2.580E+02	 8.134E+01	 1.046E+01	 6.456E+01	-1.056E+00	-1.977E+03	 2.742E+02	 4.422E+03	-3.108E+01	 2.001E+02	 2.187E+00	 2.600E+00
  67.050	 5.599E+00	-6.740E-01	-8.194E-01	 2.269E+01	-1.935E+01	 9.815E+01	 2.584E+02	 4.481E+02	 1.028E+00	 4.593E+02	 2.378E+02	 8.150E+01	 1.046E+01	 6.283E+01	-8.461E-01	-1.978E+03	 2.461E+02	 4.308E+03	 2.495E+00	 2.003E+02	 2.188E+00	 2.600E+00
  67.100	 5.508E+00	-7.254E-01	-5.884E-01	 2.334E+01	-1.754E+01	 9.895E+01	 2.371E+02	 4.585E+02	 1.167E+00	 4.688E+02	 2.160E+02	 8.138E+01	 1.046E+01	 5.981E+01	-2.188E-01	-1.977E+03	 2.063E+02	 4.158E+03	 3.104E+01	 2.004E+02	 2.189E+00	 2.600E+00
  67.150	 5.196E+00	-7.203E-01	-5.102E-01	 2.315E+01	-1.551E+01	 9.964E+01	 2.138E+02	 4.661E+02	 9.273E-01	 4.754E+02	 1.924E+02	 8.061E+01	 1.046E+01	 5.740E+01	 5.093E-01	-1.977E+03	 1.617E+02	 4.022E+03	 5.833E+01	 2.005E+02	 2.190E+00	 2.600E+00
  67.200	 5.171E+00	-7.885E-01	-2.084E-01	 2.472E+01	-1.386E+01	 1.002E+02	 1.925E+02	 4.853E+02	 1.276E+00	 4.936E+02	 1.703E+02	 8.241E+01	 1.046E+01	 5.656E+01	 1.261E+00	-1.978E+03	 1.172E+02	 3.928E+03	 6.761E+01	 2.005E+02	 2.190E+00	 2.600E+00
  67.250	 5.217E+00	-7.391E-01	-2.960E-01	 2.526E+01	-1.183E+01	 1.007E+02	 1.697E+02	 5.014E+02	 1.540E+00	 5.086E+02	 1.468E+02	 8.198E+01	 1.047E+01	 5.699E+01	 1.807E+00	-1.978E+03	 7.931E+01	 3.871E+03	 7.714E+01	 2.006E+02	 2.191E+00	 2.600E+00
  67.300	 5.250E+00	-6.355E-01	-3.250E-01	 2.599E+01	-9.641E+00	 1.011E+02	 1.445E+02	 5.176E+02	 1.522E+00	 5.236E+02	 1.209E+02	 8.212E+01	 1.047E+01	 5.758E+01	 2.026E+00	-1.978E+03	 5.064E+01	 3.820E+03	 7.268E+01	 2.007E+02	 2.191E+00	 2.600E+00
  67.350	 5.370E+00	-9.451E-01	-2.843E-01	 2.684E+01	-7.711E+00	 1.014E+02	 1.202E+02	 5.319E+02	 1.658E+00	 5.368E+02	 9.593E+01	 8.260E+01	 1.047E+01	 5.714E+01	 2.018E+00	-1.979E+03	 2.744E+01	 3.742E+03	 6.640E+01	 2.009E+02	 2.192E+00	 2.600E+00
  67.400	 5.402E+00	-7.950E-01	-4.380E-01	 2.754E+01	-5.711E+00	 1.015E+02	 9.488E+01	 5.410E+02	 1.865E+00	 5.448E+02	 7.024E+01	 8.266E+01	 1.047E+01	 5.542E+01	 2.369E+00	-1.979E+03	-3.068E+00	 3.633E+03	 4.702E+01	 2.010E+02	 2.194E+00	 2.600E+00
  67.450	 5.449E+00	-6.631E-01	-2.612E-01	 2.648E+01	-3.335E+00	 1.015E+02	 6.708E+01	 5.328E+02	 1.902E+00	 5.353E+02	 4.284E+01	 8.152E+01	 1.047E+01	 5.353E+01	 2.897E+00	-1.978E+03	-3.740E+01	 3.518E+03	 4.564E+00	 2.011E+02	 2.194E+00	 2.600E+00
  67.500	 5.311E+00	-2.676E-01	-6.755E-02	 2.716E+01	-1.440E+00	 1.014E+02	 4.205E+01	 5.293E+02	 2.309E+00	 5.306E+02	 1.800E+01	 8.212E+01	 1.048E+01	 5.137E+01	 3.441E+00	-1.977E+03	-7.044E+01	 3.402E+03	-4.073E+01	 2.012E+02	 2.195E+00	 2.600E+00
  67.550	 5.266E+00	-3.866E-01	-2.084E-01	 2.576E+01	 9.041E-01	 1.013E+02	 1.459E+01	 5.101E+02	 2.180E+00	 5.102E+02	-8.562E+00	 8.084E+01	 1.048E+01	 4.987E+01	 3.623E+00	-1.977E+03	-9.394E+01	 3.307E+03	-7.520E+01	 2.014E+02	 2.196E+00	 2.600E+00
  67.600	 5.506E+00	-2.685E-01	-3.383E-01	 2.442E+01	 3.299E+00	 1.011E+02	-1.346E+01	 4.895E+02	 2.173E+00	 4.883E+02	-3.565E+01	 8.006E+01	 1.048E+01	 4.856E+01	 3.740E+00	-1.977E+03	-1.130E+02	 3.225E+03	-8.723E+01	 2.016E+02	 2.198E+00	 2.600E+00
  67.650	 5.423E+00	-1.486E-01	-4.364E-01	 2.406E+01	 5.435E+00	 1.008E+02	-3.974E+01	 4.764E+02	 2.324E+00	 4.741E+02	-6.130E+01	 7.933E+01	 1.049E+01	 4.714E+01	 4.052E+00	-1.976E+03	-1.329E+02	 3.153E+03	-1.069E+02	 2.019E+02	 2.200E+00	 2.600E+00
  67.700	 5.548E+00	-1.188E-01	-3.032E-01	 2.330E+01	 7.504E+00	 1.004E+02	-6.495E+01	 4.647E+02	 2.243E+00	 4.613E+02	-8.597E+01	 7.891E+01	 1.049E+01	 4.609E+01	 4.259E+00	-1.976E+03	-1.482E+02	 3.100E+03	-1.080E+02	 2.021E+02	 2.201E+00	 2.600E+00
  67.750	 5.524E+00	-3.005E-01	-1.961E-01	 2.384E+01	 9.408E+00	 9.983E+01	-8.716E+01	 4.670E+02	 2.681E+00	 4.626E+02	-1.083E+02	 8.037E+01	 1.049E+01	 4.514E+01	 4.580E+00	-1.977E+03	-1.622E+02	 3.066E+03	-9.715E+01	 2.023E+02	 2.203E+00	 2.600E+00
  67.800	 5.477E+00	-4.434E-02	-6.453E-02	 2.356E+01	 1.119E+01	 9.919E+01	-1.085E+02	 4.662E+02	 2.562E+00	 4.608E+02	-1.296E+02	 8.052E+01	 1.050E+01	 4.507E+01	 4.601E+00	-1.976E+03	-1.666E+02	 3.068E+03	-8.884E+01	 2.025E+02	 2.205E+00	 2.600E+00
  67.850	 5.404E+00	 1.437E-01	-2.476E-01	 2.389E+01	 1.308E+01	 9.837E+01	-1.288E+02	 4.780E+02	 2.656E+00	 4.717E+02	-1.504E+02	 8.128E+01	 1.050E+01	 4.509E+01	 4.650E+00	-1.977E+03	-1.663E+02	 3.094E+03	-6.608E+01	 2.029E+02	 2.207E+00	 2.600E+00
  67.900	 5.415E+00	 2.532E-01	-9.085E-02	 2.512E+01	 1.474E+01	 9.742E+01	-1.482E+02	 4.992E+02	 2.729E+00	 4.920E+02	-1.707E+02	 8.195E+01	 1.051E+01	 4.615E+01	 4.582E+00	-1.977E+03	-1.590E+02	 3.167E+03	-5.521E+01	 2.032E+02	 2.209E+00	 2.600E+00
  67.950	 5.461E+00	 2.380E-01	 2.391E-01	 2.663E+01	 1.655E+01	 9.638E+01	-1.690E+02	 5.228E+02	 2.903E+00	 5.146E+02	-1.925E+02	 8.273E+01	 1.051E+01	 4.889E+01	 4.530E+00	-1.977E+03	-1.470E+02	 3.296E+03	-6.141E+01	 2.035E+02	 2.211E+00	 2.600E+00
  68.000	 5.445E+00	 8.944E-02	-6.349E-02	 2.696E+01	 1.827E+01	 9.523E+01	-1.903E+02	 5.305E+02	 2.980E+00	 5.214E+02	-2.142E+02	 8.282E+01	 1.052E+01	 5.240E+01	 4.102E+00	-1.977E+03	-1.238E+02	 3.456E+03	-5.117E+01	 2.037E+02	 2.213E+00	 2.600E+00
  68.050	 5.466E+00	-2.678E-02	-2.684E-01	 2.714E+01	 1.995E+01	 9.399E+01	-2.106E+02	 5.347E+02	 3.202E+00	 5.246E+02	-2.347E+02	 8.423E+01	 1.052E+01	 5.522E+01	 3.525E+00	-1.978E+03	-9.536E+01	 3.605E+03	-3.245E+01	 2.039E+02	 2.214E+00	 2.600E+00
  68.100	 5.535E+00	-3.731E-02	-2.426E-01	 2.669E+01	 2.175E+01	 9.263E+01	-2.320E+02	 5.294E+02	 3.128E+00	 5.183E+02	-2.557E+02	 8.410E+01	 1.052E+01	 5.656E+01	 3.261E+00	-1.978E+03	-7.201E+01	 3.720E+03	-1.808E+01	 2.040E+02	 2.215E+00	 2.600E+00
  68.150	 5.464E+00	 1.337E-01	-1.544E-01	 2.720E+01	 2.295E+01	 9.116E+01	-2.495E+02	 5.257E+02	 3.321E+00	 5.138E+02	-2.731E+02	 8.292E+01	 1.053E+01	 5.684E+01	 3.227E+00	-1.977E+03	-5.214E+01	 3.810E+03	-3.737E+01	 2.041E+02	 2.216E+00	 2.600E+00
  68.200	 5.469E+00	 3.804E-01	-2.530E-01	 2.595E+01	 2.471E+01	 8.967E+01	-2.683E+02	 5.099E+02	 3.129E+00	 4.972E+02	-2.911E+02	 8.183E+01	 1.053E+01	 5.761E+01	 2.977E+00	-1.977E+03	-2.611E+01	 3.913E+03	-3.721E+01	 2.042E+02	 2.217E+00	 2.600E+00
  68.250	 5.536E+00	 3.718E-01	-2.023E-01	 2.545E+01	 2.587E+01	 8.812E+01	-2.832E+02	 4.919E+02	 3.135E+00	 4.786E+02	-3.052E+02	 8.075E+01	 1.053E+01	 5.957E+01	 2.520E+00	-1.976E+03	 7.193E+00	 4.045E+03	-3.765E+01	 2.044E+02	 2.218E+00	 2.600E+00
  68.300	 5.613E+00	 2.544E-01	-3.752E-02	 2.425E+01	 2.711E+01	 8.650E+01	-2.982E+02	 4.677E+02	 3.136E+00	 4.537E+02	-3.191E+02	 8.055E+01	 1.053E+01	 6.222E+01	 1.808E+00	-1.976E+03	 4.764E+01	 4.190E+03	-1.384E+01	 2.045E+02	 2.219E+00	 2.600E+00
  68.350	 5.743E+00	 4.517E-01	-8.583E-02	 2.345E+01	 2.835E+01	 8.480E+01	-3.134E+02	 4.474E+02	 3.178E+00	 4.327E+02	-3.333E+02	 8.094E+01	 1.053E+01	 6.424E+01	 1.261E+00	-1.976E+03	 8.505E+01	 4.313E+03	 7.102E+00	 2.045E+02	 2.219E+00	 2.600E+00
  68.400	 5.649E+00	 4.267E-01	-4.658E-01	 2.273E+01	 2.939E+01	 8.299E+01	-3.277E+02	 4.314E+02	 3.131E+00	 4.161E+02	-3.469E+02	 8.088E+01	 1.053E+01	 6.454E+01	 8.560E-01	-1.976E+03	 1.179E+02	 4.385E+03	 2.152E+01	 2.045E+02	 2.219E+00	 2.600E+00
  68.450	 5.830E+00	 3.629E-01	-3.986E-01	 2.239E+01	 3.050E+01	 8.114E+01	-3.418E+02	 4.238E+02	 3.040E+00	 4.078E+02	-3.606E+02	 8.071E+01	 1.053E+01	 6.430E+01	 6.705E-01	-1.976E+03	 1.448E+02	 4.432E+03	 1.902E+01	 2.044E+02	 2.218E+00	 2.600E+00
  68.500	 5.830E+00	 2.259E-01	-6.008E-01	 2.283E+01	 3.129E+01	 7.919E+01	-3.536E+02	 4.225E+02	 3.127E+00	 4.060E+02	-3.724E+02	 8.190E+01	 1.053E+01	 6.367E+01	 3.874E-01	-1.976E+03	 1.731E+02	 4.465E+03	 2.078E+01	 2.043E+02	 2.217E+00	 2.600E+00
  68.550	 5.890E+00	 2.980E-01	-5.750E-01	 2.204E+01	 3.242E+01	 7.723E+01	-3.669E+02	 4.153E+02	 2.980E+00	 3.983E+02	-3.853E+02	 8.200E+01	 1.053E+01	 6.443E+01	-1.450E-02	-1.976E+03	 2.033E+02	 4.528E+03	 3.191E+01	 2.041E+02	 2.216E+00	 2.600E+00
  68.600	 5.878E+00	 6.342E-02	-6.310E-01	 2.248E+01	 3.301E+01	 7.524E+01	-3.770E+02	 4.172E+02	 3.161E+00	 3.997E+02	-3.955E+02	 8.281E+01	 1.052E+01	 6.658E+01	-5.301E-01	-1.976E+03	 2.347E+02	 4.618E+03	 2.966E+01	 2.040E+02	 2.215E+00	 2.600E+00
  68.650	 5.690E+00	 1.345E-01	-5.780E-01	 2.276E+01	 3.365E+01	 7.318E+01	-3.878E+02	 4.182E+02	 3.112E+00	 4.002E+02	-4.064E+02	 8.292E+01	 1.052E+01	 6.852E+01	-8.510E-01	-1.977E+03	 2.606E+02	 4.696E+03	 2.492E+01	 2.039E+02	 2.214E+00	 2.600E+00
  68.700	 5.841E+00	-5.533E-02	-7.755E-01	 2.203E+01	 3.464E+01	 7.109E+01	-4.000E+02	 4.097E+02	 2.935E+00	 3.912E+02	-4.181E+02	 8.185E+01	 1.052E+01	 6.990E+01	-1.031E+00	-1.977E+03	 2.821E+02	 4.743E+03	 2.446E+01	 2.036E+02	 2.213E+00	 2.600E+00
  68.750	 5.658E+00	 2.827E-02	-7.168E-01	 2.210E+01	 3.505E+01	 6.903E+01	-4.070E+02	 4.055E+02	 2.905E+00	 3.866E+02	-4.249E+02	 8.134E+01	 1.051E+01	 6.918E+01	-1.378E+00	-1.977E+03	 3.047E+02	 4.719E+03	 1.951E+01	 2.034E+02	 2.211E+00	 2.600E+00
  68.800	 5.595E+00	-1.090E-01	-7.555E-01	 2.223E+01	 3.498E+01	 6.693E+01	-4.090E+02	 3.991E+02	 3.033E+00	 3.801E+02	-4.267E+02	 8.178E+01	 1.051E+01	 6.638E+01	-1.850E+00	-1.977E+03	 3.269E+02	 4.633E+03	 2.679E+01	 2.033E+02	 2.210E+00	 2.600E+00
  68.850	 5.560E+00	-1.092E-01	-6.353E-01	 2.102E+01	 3.558E+01	 6.483E+01	-4.144E+02	 3.836E+02	 2.951E+00	 3.644E+02	-4.314E+02	 8.315E+01	 1.051E+01	 6.410E+01	-1.767E+00	-1.977E+03	 3.347E+02	 4.551E+03	 5.904E+01	 2.032E+02	 2.210E+00	 2.600E+00
  68.900	 5.703E+00	-3.595E-01	-5.861E-01	 2.001E+01	 3.554E+01	 6.274E+01	-4.145E+02	 3.685E+02	 2.783E+00	 3.493E+02	-4.308E+02	 8.251E+01	 1.051E+01	 6.369E+01	-1.756E+00	-1.977E+03	 3.401E+02	 4.512E+03	 8.007E+01	 2.032E+02	 2.209E+00	 2.600E+00
  68.950	 5.757E+00	-5.186E-01	-7.691E-01	 1.928E+01	 3.546E+01	 6.066E+01	-4.120E+02	 3.605E+02	 2.709E+00	 3.414E+02	-4.280E+02	 8.133E+01	 1.051E+01	 6.518E+01	-1.668E+00	-1.977E+03	 3.412E+02	 4.515E+03	 8.953E+01	 2.030E+02	 2.208E+00	 2.600E+00
  69.000	 5.733E+00	-3.279E-01	-9.547E-01	 1.960E+01	 3.491E+01	 5.859E+01	-4.050E+02	 3.646E+02	 2.822E+00	 3.458E+02	-4.212E+02	 8.099E+01	 1.051E+01	 6.646E+01	-1.901E+00	-1.977E+03	 3.460E+02	 4.505E+03	 8.269E+01	 2.029E+02	 2.207E+00	 2.600E+00
  69.050	 5.671E+00	-3.097E-01	-8.724E-01	 1.942E+01	 3.487E+01	 5.652E+01	-4.009E+02	 3.710E+02	 2.585E+00	 3.524E+02	-4.174E+02	 8.098E+01	 1.050E+01	 6.564E+01	-1.930E+00	-1.977E+03	 3.437E+02	 4.434E+03	 7.490E+01	 2.029E+02	 2.207E+00	 2.600E+00
  69.100	 5.699E+00	-4.212E-01	-8.557E-01	 2.058E+01	 3.423E+01	 5.447E+01	-3.936E+02	 3.873E+02	 2.739E+00	 3.690E+02	-4.107E+02	 8.254E+01	 1.050E+01	 6.361E+01	-1.944E+00	-1.977E+03	 3.365E+02	 4.319E+03	 5.716E+01	 2.029E+02	 2.207E+00	 2.600E+00
  69.150	 5.623E+00	-5.064E-01	-7.970E-01	 2.057E+01	 3.377E+01	 5.246E+01	-3.877E+02	 3.984E+02	 2.741E+00	 3.804E+02	-4.053E+02	 8.287E+01	 1.051E+01	 6.076E+01	-1.639E+00	-1.977E+03	 3.181E+02	 4.181E+03	 4.165E+01	 2.030E+02	 2.208E+00	 2.600E+00
  69.200	 5.569E+00	-7.343E-01	-8.384E-01	 2.137E+01	 3.316E+01	 5.048E+01	-3.810E+02	 4.140E+02	 2.891E+00	 3.963E+02	-3.994E+02	 8.337E+01	 1.051E+01	 5.952E+01	-1.139E+00	-1.978E+03	 2.922E+02	 4.076E+03	 2.731E+01	 2.031E+02	 2.208E+00	 2.600E+00
  69.250	 5.471E+00	-6.540E-01	-8.723E-01	 2.216E+01	 3.234E+01	 4.853E+01	-3.718E+02	 4.281E+02	 3.046E+00	 4.108E+02	-3.908E+02	 8.246E+01	 1.051E+01	 5.872E+01	-7.137E-01	-1.977E+03	 2.662E+02	 3.985E+03	-2.132E+00	 2.030E+02	 2.208E+00	 2.600E+00
  69.300	 5.306E+00	-5.238E-01	-7.478E-01	 2.220E+01	 3.147E+01	 4.667E+01	-3.600E+02	 4.392E+02	 2.982E+00	 4.224E+02	-3.796E+02	 8.201E+01	 1.051E+01	 5.811E+01	-6.569E-01	-1.978E+03	 2.462E+02	 3.898E+03	-1.924E+01	 2.031E+02	 2.209E+00	 2.600E+00
  69.350	 5.390E+00	-4.903E-01	-5.508E-01	 2.288E+01	 3.047E+01	 4.485E+01	-3.459E+02	 4.529E+02	 3.006E+00	 4.367E+02	-3.661E+02	 8.230E+01	 1.051E+01	 5.681E+01	-5.007E-01	-1.978E+03	 2.227E+02	 3.795E+03	-3.989E+01	 2.033E+02	 2.210E+00	 2.600E+00
  69.400	 5.496E+00	-3.666E-01	-5.075E-01	 2.233E+01	 2.946E+01	 4.312E+01	-3.311E+02	 4.560E+02	 2.817E+00	 4.405E+02	-3.515E+02	 8.131E+01	 1.051E+01	 5.474E+01	-1.306E-01	-1.978E+03	 1.922E+02	 3.676E+03	-5.187E+01	 2.035E+02	 2.212E+00	 2.600E+00
  69.450	 5.407E+00	-5.427E-01	-5.241E-01	 2.267E+01	 2.806E+01	 4.143E+01	-3.128E+02	 4.621E+02	 2.927E+00	 4.475E+02	-3.334E+02	 8.170E+01	 1.052E+01	 5.301E+01	 3.582E-01	-1.977E+03	 1.566E+02	 3.567E+03	-5.651E+01	 2.037E+02	 2.213E+00	 2.600E+00
  69.500	 5.346E+00	-2.556E-01	-2.010E-01	 2.306E+01	 2.640E+01	 3.983E+01	-2.920E+02	 4.659E+02	 2.913E+00	 4.522E+02	-3.128E+02	 8.094E+01	 1.052E+01	 5.145E+01	 7.831E-01	-1.977E+03	 1.202E+02	 3.466E+03	-5.711E+01	 2.038E+02	 2.214E+00	 2.600E+00
  69.550	 5.318E+00	-3.313E-01	-2.470E-01	 2.324E+01	 2.477E+01	 3.831E+01	-2.708E+02	 4.670E+02	 2.796E+00	 4.543E+02	-2.917E+02	 7.979E+01	 1.052E+01	 4.987E+01	 1.362E+00	-1.976E+03	 7.979E+01	 3.375E+03	-5.852E+01	 2.039E+02	 2.214E+00	 2.600E+00
  69.600	 5.364E+00	-1.865E-01	-4.141E-01	 2.294E+01	 2.337E+01	 3.685E+01	-2.523E+02	 4.629E+02	 2.580E+00	 4.510E+02	-2.730E+02	 8.133E+01	 1.052E+01	 4.823E+01	 1.985E+00	-1.976E+03	 3.847E+01	 3.297E+03	-6.115E+01	 2.040E+02	 2.215E+00	 2.600E+00
  69.650	 5.504E+00	-5.187E-01	-4.559E-01	 2.272E+01	 2.166E+01	 3.547E+01	-2.325E+02	 4.585E+02	 2.663E+00	 4.474E+02	-2.530E+02	 8.036E+01	 1.053E+01	 4.837E+01	 2.574E+00	-1.976E+03	-1.335E+00	 3.275E+03	-5.723E+01	 2.043E+02	 2.217E+00	 2.600E+00
  69.700	 5.625E+00	-5.486E-01	-3.178E-01	 2.193E+01	 2.020E+01	 3.413E+01	-2.164E+02	 4.475E+02	 2.652E+00	 4.372E+02	-2.364E+02	 8.068E+01	 1.053E+01	 4.961E+01	 3.060E+00	-1.977E+03	-3.680E+01	 3.294E+03	-4.608E+01	 2.044E+02	 2.218E+00	 2.600E+00
  69.750	 5.643E+00	-3.049E-01	-4.884E-01	 2.110E+01	 1.893E+01	 3.290E+01	-2.016E+02	 4.365E+02	 2.484E+00	 4.269E+02	-2.212E+02	 8.042E+01	 1.053E+01	 5.109E+01	 3.488E+00	-1.977E+03	-6.777E+01	 3.327E+03	-3.514E+01	 2.045E+02	 2.219E+00	 2.600E+00
  69.800	 5.401E+00	-3.078E-01	-4.115E-01	 2.101E+01	 1.708E+01	 3.183E+01	-1.828E+02	 4.303E+02	 2.488E+00	 4.216E+02	-2.021E+02	 7.974E+01	 1.053E+01	 5.171E+01	 3.479E+00	-1.978E+03	-8.764E+01	 3.342E+03	-2.721E+01	 2.045E+02	 2.219E+00	 2.600E+00
  69.850	 5.386E+00	 5.172E-02	-3.274E-01	 2.080E+01	 1.557E+01	 3.088E+01	-1.654E+02	 4.255E+02	 2.352E+00	 4.176E+02	-1.845E+02	 8.068E+01	 1.054E+01	 5.067E+01	 3.740E+00	-1.978E+03	-1.105E+02	 3.322E+03	-2.356E+01	 2.047E+02	 2.220E+00	 2.600E+00
  69.900	 5.308E+00	-1.370E-01	-2.020E-01	 2.074E+01	 1.376E+01	 3.007E+01	-1.452E+02	 4.242E+02	 2.176E+00	 4.171E+02	-1.643E+02	 8.086E+01	 1.054E+01	 4.948E+01	 4.072E+00	-1.978E+03	-1.334E+02	 3.303E+03	-1.951E+01	 2.050E+02	 2.222E+00	 2.600E+00
  69.950	 5.302E+00	-4.202E-01	-6.104E-02	 2.129E+01	 1.195E+01	 2.932E+01	-1.249E+02	 4.261E+02	 2.174E+00	 4.200E+02	-1.441E+02	 8.189E+01	 1.054E+01	 4.945E+01	 4.632E+00	-1.978E+03	-1.582E+02	 3.322E+03	-5.624E+00	 2.052E+02	 2.224E+00	 2.600E+00
  70.000	 5.251E+00	-1.935E-01	-2.985E-01	 2.104E+01	 1.000E+01	 2.868E+01	-1.025E+02	 4.227E+02	 2.067E+00	 4.176E+02	-1.215E+02	 8.260E+01	 1.055E+01	 5.034E+01	 4.778E+00	-1.978E+03	-1.718E+02	 3.378E+03	 1.213E+01	 2.054E+02	 2.225E+00	 2.600E+00
  70.050	 5.085E+00	-2.386E-01	-1.156E-01	 2.100E+01	 7.661E+00	 2.814E+01	-7.638E+01	 4.181E+02	 1.972E+00	 4.142E+02	-9.527E+01	 8.155E+01	 1.055E+01	 5.211E+01	 4.802E+00	-1.977E+03	-1.788E+02	 3.465E+03	 1.283E+01	 2.056E+02	 2.227E+00	 2.600E+00
  70.100	 5.247E+00	-4.996E-01	-2.215E-01	 2.048E+01	 5.679E+00	 2.769E+01	-5.140E+01	 4.118E+02	 1.859E+00	 4.090E+02	-7.003E+01	 8.155E+01	 1.055E+01	 5.361E+01	 4.762E+00	-1.977E+03	-1.801E+02	 3.555E+03	 1.025E+01	 2.057E+02	 2.227E+00	 2.600E+00
  70.150	 5.214E+00	-6.050E-01	-2.540E-02	 2.002E+01	 3.654E+00	 2.735E+01	-2.583E+01	 4.078E+02	 1.710E+00	 4.062E+02	-4.430E+01	 8.260E+01	 1.056E+01	 5.497E+01	 4.658E+00	-1.977E+03	-1.770E+02	 3.647E+03	 2.429E+00	 2.059E+02	 2.229E+00	 2.600E+00
  70.200	 5.468E+00	-4.025E-01	 2.968E-02	 2.005E+01	 1.547E+00	 2.710E+01	-1.476E-01	 4.070E+02	 1.654E+00	 4.065E+02	-1.861E+01	 8.319E+01	 1.056E+01	 5.635E+01	 4.564E+00	-1.977E+03	-1.718E+02	 3.741E+03	-8.940E-01	 2.060E+02	 2.229E+00	 2.600E+00
  70.250	 5.360E+00	-3.832E-01	 3.123E-02	 2.042E+01	-7.437E-01	 2.697E+01	 2.596E+01	 4.068E+02	 1.622E+00	 4.075E+02	 7.483E+00	 8.180E+01	 1.056E+01	 5.754E+01	 4.545E+00	-1.977E+03	-1.658E+02	 3.829E+03	 6.199E+00	 2.060E+02	 2.229E+00	 2.600E+00
  70.300	 5.307E+00	-4.275E-01	 5.265E-02	 2.052E+01	-2.954E+00	 2.698E+01	 5.162E+01	 4.060E+02	 1.507E+00	 4.080E+02	 3.315E+01	 8.101E+01	 1.056E+01	 5.787E+01	 4.412E+00	-1.978E+03	-1.551E+02	 3.896E+03	 3.300E+01	 2.060E+02	 2.229E+00	 2.600E+00
  70.350	 5.245E+00	-5.609E-01	-2.027E-01	 2.071E+01	-5.048E+00	 2.710E+01	 7.582E+01	 4.047E+02	 1.395E+00	 4.077E+02	 5.739E+01	 8.064E+01	 1.056E+01	 5.797E+01	 4.383E+00	-1.978E+03	-1.434E+02	 3.958E+03	 4.595E+01	 2.059E+02	 2.229E+00	 2.600E+00
  70.400	 5.218E+00	-4.822E-01	-1.331E-01	 2.010E+01	-6.972E+00	 2.733E+01	 9.866E+01	 3.994E+02	 1.231E+00	 4.035E+02	 8.043E+01	 8.111E+01	 1.056E+01	 5.848E+01	 4.247E+00	-1.978E+03	-1.261E+02	 4.033E+03	 4.941E+01	 2.060E+02	 2.230E+00	 2.600E+00
  70.450	 5.100E+00	-3.556E-01	-3.186E-01	 2.017E+01	-9.016E+00	 2.764E+01	 1.206E+02	 3.954E+02	 1.117E+00	 4.004E+02	 1.025E+02	 8.153E+01	 1.056E+01	 6.040E+01	 3.978E+00	-1.978E+03	-1.023E+02	 4.142E+03	 5.148E+01	 2.060E+02	 2.230E+00	 2.600E+00
  70.500	 4.994E+00	-1.862E-01	-3.051E-01	 2.043E+01	-1.117E+01	 2.804E+01	 1.437E+02	 3.920E+02	 1.108E+00	 3.981E+02	 1.258E+02	 8.114E+01	 1.056E+01	 6.310E+01	 3.363E+00	-1.978E+03	-6.845E+01	 4.267E+03	 5.985E+01	 2.059E+02	 2.229E+00	 2.600E+00
  70.550	 5.047E+00	-1.616E-01	-3.480E-01	 1.991E+01	-1.308E+01	 2.857E+01	 1.666E+02	 3.847E+02	 1.042E+00	 3.919E+02	 1.489E+02	 8.114E+01	 1.055E+01	 6.498E+01	 2.680E+00	-1.978E+03	-3.195E+01	 4.366E+03	 6.387E+01	 2.057E+02	 2.228E+00	 2.600E+00
  70.600	 5.040E+00	-3.270E-01	-8.231E-02	 1.950E+01	-1.522E+01	 2.925E+01	 1.906E+02	 3.729E+02	 9.374E-01	 3.812E+02	 1.735E+02	 8.036E+01	 1.055E+01	 6.570E+01	 2.167E+00	-1.977E+03	 2.172E-01	 4.427E+03	 6.152E+01	 2.055E+02	 2.226E+00	 2.600E+00
  70.650	 4.991E+00	-3.018E-01	-3.072E-01	 1.913E+01	-1.696E+01	 3.004E+01	 2.124E+02	 3.616E+02	 7.311E-01	 3.708E+02	 1.957E+02	 8.221E+01	 1.055E+01	 6.591E+01	 2.114E+00	-1.977E+03	 2.168E+01	 4.464E+03	 4.062E+01	 2.054E+02	 2.225E+00	 2.600E+00
  70.700	 4.837E+00	-1.746E-01	-3.024E-01	 1.833E+01	-1.910E+01	 3.089E+01	 2.362E+02	 3.450E+02	 8.726E-01	 3.554E+02	 2.203E+02	 8.199E+01	 1.054E+01	 6.646E+01	 1.960E+00	-1.977E+03	 4.410E+01	 4.501E+03	 1.199E+01	 2.052E+02	 2.224E+00	 2.600E+00
  70.750	 4.729E+00	-3.784E-01	-3.463E-01	 1.752E+01	-2.107E+01	 3.188E+01	 2.582E+02	 3.284E+02	 6.702E-01	 3.397E+02	 2.431E+02	 8.091E+01	 1.054E+01	 6.743E+01	 1.713E+00	-1.977E+03	 7.012E+01	 4.540E+03	-4.625E+00	 2.050E+02	 2.222E+00	 2.600E+00
  70.800	 4.944E+00	-3.915E-01	-1.934E-01	 1.685E+01	-2.284E+01	 3.289E+01	 2.800E+02	 3.212E+02	 7.614E-01	 3.336E+02	 2.651E+02	 7.953E+01	 1.053E+01	 6.902E+01	 9.569E-01	-1.977E+03	 1.078E+02	 4.579E+03	-1.793E+01	 2.047E+02	 2.220E+00	 2.600E+00
  70.850	 5.120E+00	-2.316E-01	-4.469E-01	 1.649E+01	-2.424E+01	 3.403E+01	 2.997E+02	 3.239E+02	 4.691E-01	 3.372E+02	 2.847E+02	 7.960E+01	 1.053E+01	 6.964E+01	 1.488E-01	-1.977E+03	 1.453E+02	 4.577E+03	-1.946E+01	 2.044E+02	 2.218E+00	 2.600E+00
  70.900	 4.956E+00	 2.268E-02	-2.434E-01	 1.803E+01	-2.632E+01	 3.522E+01	 3.232E+02	 3.429E+02	 6.845E-01	 3.572E+02	 3.073E+02	 7.985E+01	 1.053E+01	 6.891E+01	-3.217E-01	-1.978E+03	 1.706E+02	 4.517E+03	-1.242E+01	 2.042E+02	 2.216E+00	 2.600E+00
  70.950	 5.000E+00	 8.426E-02	-1.245E-01	 1.842E+01	-2.794E+01	 3.657E+01	 3.442E+02	 3.595E+02	 3.499E-01	 3.748E+02	 3.275E+02	 7.944E+01	 1.052E+01	 6.598E+01	-1.978E-01	-1.977E+03	 1.777E+02	 4.387E+03	-8.560E+00	 2.039E+02	 2.215E+00	 2.600E+00
  71.000	 5.041E+00	 4.619E-01	-2.242E-01	 1.973E+01	-2.972E+01	 3.796E+01	 3.663E+02	 3.834E+02	 4.046E-01	 3.996E+02	 3.485E+02	 7.938E+01	 1.052E+01	 6.239E+01	 2.877E-01	-1.977E+03	 1.735E+02	 4.226E+03	 1.083E+01	 2.037E+02	 2.213E+00	 2.600E+00
  71.050	 5.250E+00	 4.706E-01	-1.697E-01	 2.092E+01	-3.139E+01	 3.941E+01	 3.880E+02	 4.086E+02	 3.343E-01	 4.258E+02	 3.691E+02	 7.947E+01	 1.051E+01	 5.922E+01	 5.181E-01	-1.977E+03	 1.734E+02	 4.073E+03	 4.259E+01	 2.034E+02	 2.211E+00	 2.600E+00
  71.100	 5.288E+00	 6.132E-01	-1.143E-01	 2.257E+01	-3.318E+01	 4.088E+01	 4.112E+02	 4.388E+02	 2.166E-01	 4.570E+02	 3.908E+02	 7.901E+01	 1.051E+01	 5.798E+01	 3.127E-01	-1.977E+03	 1.828E+02	 3.966E+03	 7.811E+01	 2.032E+02	 2.209E+00	 2.600E+00
  71.150	 4.943E+00	 3.853E-01	 2.234E-02	 2.345E+01	-3.459E+01	 4.238E+01	 4.320E+02	 4.630E+02	 1.465E-01	 4.822E+02	 4.105E+02	 7.938E+01	 1.051E+01	 5.794E+01	 2.405E-03	-1.978E+03	 1.947E+02	 3.887E+03	 9.547E+01	 2.031E+02	 2.208E+00	 2.600E+00
  71.200	 5.170E+00	 4.093E-01	-1.832E-01	 2.410E+01	-3.612E+01	 4.396E+01	 4.515E+02	 4.794E+02	 4.039E-02	 4.994E+02	 4.293E+02	 7.944E+01	 1.051E+01	 5.779E+01	-2.622E-01	-1.979E+03	 2.037E+02	 3.805E+03	 9.880E+01	 2.030E+02	 2.208E+00	 2.600E+00
  71.250	 5.341E+00	 7.229E-01	-1.102E-01	 2.400E+01	-3.721E+01	 4.567E+01	 4.666E+02	 4.850E+02	-2.966E-01	 5.057E+02	 4.442E+02	 7.907E+01	 1.051E+01	 5.632E+01	-1.180E-01	-1.979E+03	 2.020E+02	 3.685E+03	 9.383E+01	 2.029E+02	 2.207E+00	 2.600E+00
  71.300	 5.516E+00	 5.375E-01	 3.603E-01	 2.383E+01	-3.826E+01	 4.745E+01	 4.811E+02	 4.878E+02	-3.017E-01	 5.091E+02	 4.585E+02	 7.771E+01	 1.050E+01	 5.343E+01	 9.055E-02	-1.979E+03	 1.965E+02	 3.529E+03	 9.037E+01	 2.029E+02	 2.207E+00	 2.600E+00
  71.350	 5.504E+00	 5.974E-01	 2.451E-01	 2.384E+01	-3.909E+01	 4.933E+01	 4.931E+02	 4.919E+02	-5.065E-01	 5.138E+02	 4.703E+02	 7.764E+01	 1.050E+01	 5.004E+01	 1.659E-01	-1.978E+03	 1.924E+02	 3.360E+03	 8.165E+01	 2.028E+02	 2.206E+00	 2.600E+00
  71.400	 5.258E+00	 3.488E-01	 1.097E-01	 2.415E+01	-3.985E+01	 5.123E+01	 5.027E+02	 4.958E+02	-6.910E-01	 5.181E+02	 4.797E+02	 7.851E+01	 1.050E+01	 4.741E+01	 1.178E-01	-1.978E+03	 1.902E+02	 3.215E+03	 6.557E+01	 2.028E+02	 2.207E+00	 2.600E+00
  71.450	 5.327E+00	 5.023E-01	 2.687E-02	 2.459E+01	-4.053E+01	 5.316E+01	 5.103E+02	 4.995E+02	-4.999E-01	 5.221E+02	 4.871E+02	 7.933E+01	 1.051E+01	 4.596E+01	 1.656E-01	-1.979E+03	 1.855E+02	 3.113E+03	 5.017E+01	 2.030E+02	 2.208E+00	 2.600E+00
  71.500	 5.286E+00	 6.280E-01	-1.555E-02	 2.351E+01	-4.081E+01	 5.518E+01	 5.136E+02	 4.904E+02	-6.487E-01	 5.132E+02	 4.908E+02	 7.989E+01	 1.051E+01	 4.553E+01	 2.424E-01	-1.978E+03	 1.790E+02	 3.052E+03	 1.963E+01	 2.032E+02	 2.210E+00	 2.600E+00
  71.550	 5.037E+00	 5.627E-01	-4.769E-02	 2.232E+01	-4.094E+01	 5.722E+01	 5.147E+02	 4.795E+02	-6.542E-01	 5.024E+02	 4.924E+02	 7.932E+01	 1.051E+01	 4.594E+01	 3.879E-01	-1.978E+03	 1.707E+02	 3.024E+03	-6.182E+00	 2.034E+02	 2.211E+00	 2.600E+00
  71.600	 5.268E+00	 7.434E-01	-1.985E-01	 2.316E+01	-4.134E+01	 5.933E+01	 5.162E+02	 4.835E+02	-5.656E-01	 5.064E+02	 4.938E+02	 7.946E+01	 1.051E+01	 4.602E+01	 4.193E-01	-1.978E+03	 1.644E+02	 3.000E+03	-5.976E+00	 2.035E+02	 2.211E+00	 2.600E+00
  71.650	 5.225E+00	 5.915E-01	-1.766E-01	 2.426E+01	-4.157E+01	 6.147E+01	 5.189E+02	 4.957E+02	-4.772E-01	 5.188E+02	 4.959E+02	 8.125E+01	 1.052E+01	 4.522E+01	 3.389E-01	-1.978E+03	 1.592E+02	 2.965E+03	-1.376E+00	 2.036E+02	 2.212E+00	 2.600E+00
  71.700	 5.193E+00	 2.858E-01	-3.519E-01	 2.498E+01	-4.193E+01	 6.361E+01	 5.221E+02	 5.001E+02	-3.773E-01	 5.233E+02	 4.989E+02	 8.186E+01	 1.052E+01	 4.371E+01	 4.726E-01	-1.979E+03	 1.479E+02	 2.928E+03	 5.560E-01	 2.039E+02	 2.214E+00	 2.600E+00
  71.750	 5.213E+00	 1.274E-01	-4.080E-01	 2.293E+01	-4.120E+01	 6.580E+01	 5.182E+02	 4.843E+02	-8.320E-01	 5.073E+02	 4.957E+02	 8.182E+01	 1.053E+01	 4.308E+01	 1.111E+00	-1.978E+03	 1.263E+02	 2.932E+03	-2.600E+01	 2.042E+02	 2.216E+00	 2.600E+00
  71.800	 5.253E+00	 1.160E-01	-4.910E-01	 2.399E+01	-4.161E+01	 6.796E+01	 5.198E+02	 4.829E+02	-3.948E-01	 5.060E+02	 4.974E+02	 8.257E+01	 1.053E+01	 4.388E+01	 1.386E+00	-1.978E+03	 1.131E+02	 2.994E+03	-2.375E+01	 2.044E+02	 2.218E+00	 2.600E+00
  71.850	 5.307E+00	-1.095E-01	-6.112E-01	 2.186E+01	-4.113E+01	 7.007E+01	 5.144E+02	 4.604E+02	-7.095E-01	 4.833E+02	 4.930E+02	 7.901E+01	 1.053E+01	 4.679E+01	 1.364E+00	-1.977E+03	 1.093E+02	 3.124E+03	-3.492E+01	 2.047E+02	 2.220E+00	 2.600E+00
  71.900	 5.344E+00	-2.382E-01	-6.734E-01	 2.265E+01	-4.071E+01	 7.221E+01	 5.090E+02	 4.624E+02	-4.505E-01	 4.850E+02	 4.875E+02	 7.921E+01	 1.054E+01	 5.011E+01	 1.100E+00	-1.978E+03	 1.132E+02	 3.274E+03	-2.282E+01	 2.048E+02	 2.221E+00	 2.600E+00
  71.950	 5.313E+00	-3.057E-01	-3.521E-01	 2.297E+01	-4.035E+01	 7.428E+01	 5.034E+02	 4.617E+02	-2.689E-01	 4.841E+02	 4.820E+02	 7.949E+01	 1.054E+01	 5.232E+01	 6.116E-01	-1.978E+03	 1.206E+02	 3.402E+03	-1.935E+01	 2.049E+02	 2.222E+00	 2.600E+00
  72.000	 5.318E+00	-3.350E-01	-9.985E-02	 2.227E+01	-3.942E+01	 7.632E+01	 4.944E+02	 4.567E+02	-2.883E-01	 4.786E+02	 4.732E+02	 7.961E+01	 1.054E+01	 5.306E+01	 7.443E-01	-1.977E+03	 1.131E+02	 3.495E+03	-2.500E+01	 2.051E+02	 2.223E+00	 2.600E+00
  72.050	 5.585E+00	-5.988E-01	-1.528E-01	 2.304E+01	-3.888E+01	 7.837E+01	 4.870E+02	 4.630E+02	-3.496E-01	 4.846E+02	 4.655E+02	 7.908E+01	 1.054E+01	 5.296E+01	 1.278E+00	-1.977E+03	 9.513E+01	 3.570E+03	-4.386E+00	 2.052E+02	 2.224E+00	 2.600E+00
  72.100	 5.638E+00	-5.025E-01	-1.406E-01	 2.387E+01	-3.834E+01	 8.031E+01	 4.790E+02	 4.721E+02	-1.164E-01	 4.933E+02	 4.571E+02	 7.968E+01	 1.055E+01	 5.341E+01	 1.729E+00	-1.977E+03	 7.864E+01	 3.659E+03	 1.911E+01	 2.053E+02	 2.225E+00	 2.600E+00
  72.150	 5.596E+00	-4.334E-01	-3.647E-02	 2.362E+01	-3.735E+01	 8.216E+01	 4.678E+02	 4.756E+02	-1.357E-01	 4.963E+02	 4.457E+02	 7.936E+01	 1.055E+01	 5.468E+01	 2.004E+00	-1.977E+03	 6.851E+01	 3.771E+03	 3.559E+01	 2.053E+02	 2.225E+00	 2.600E+00
  72.200	 5.573E+00	-2.953E-01	-3.965E-02	 2.407E+01	-3.633E+01	 8.400E+01	 4.569E+02	 4.848E+02	-6.614E-02	 5.050E+02	 4.344E+02	 8.006E+01	 1.055E+01	 5.656E+01	 1.965E+00	-1.977E+03	 6.863E+01	 3.903E+03	 4.790E+01	 2.054E+02	 2.225E+00	 2.600E+00
  72.250	 5.584E+00	-6.698E-02	-2.467E-02	 2.407E+01	-3.524E+01	 8.575E+01	 4.453E+02	 4.882E+02	-6.083E-02	 5.079E+02	 4.226E+02	 8.055E+01	 1.055E+01	 5.909E+01	 1.630E+00	-1.977E+03	 7.727E+01	 4.052E+03	 5.363E+01	 2.054E+02	 2.225E+00	 2.600E+00
  72.300	 5.761E+00	 6.908E-02	 8.223E-02	 2.477E+01	-3.429E+01	 8.747E+01	 4.343E+02	 4.974E+02	 5.736E-02	 5.166E+02	 4.113E+02	 8.172E+01	 1.055E+01	 6.113E+01	 1.324E+00	-1.978E+03	 8.592E+01	 4.187E+03	 5.910E+01	 2.054E+02	 2.225E+00	 2.600E+00
  72.350	 5.399E+00	 5.184E-02	 2.826E-01	 2.555E+01	-3.324E+01	 8.910E+01	 4.212E+02	 5.060E+02	 1.566E-01	 5.246E+02	 3.979E+02	 8.241E+01	 1.055E+01	 6.235E+01	 1.390E+00	-1.978E+03	 8.649E+01	 4.300E+03	 5.841E+01	 2.055E+02	 2.226E+00	 2.600E+00
  72.400	 5.417E+00	 9.450E-02	 1.996E-01	 2.514E+01	-3.160E+01	 9.064E+01	 4.043E+02	 5.075E+02	-2.247E-02	 5.253E+02	 3.809E+02	 8.315E+01	 1.055E+01	 6.374E+01	 1.566E+00	-1.977E+03	 8.436E+01	 4.411E+03	 4.908E+01	 2.054E+02	 2.225E+00	 2.600E+00
  72.450	 5.428E+00	 1.374E-01	 2.527E-01	 2.594E+01	-3.048E+01	 9.207E+01	 3.907E+02	 5.133E+02	 4.164E-01	 5.305E+02	 3.670E+02	 8.485E+01	 1.055E+01	 6.499E+01	 1.507E+00	-1.978E+03	 8.783E+01	 4.516E+03	 2.897E+01	 2.053E+02	 2.224E+00	 2.600E+00
  72.500	 5.437E+00	 1.840E-01	 2.656E-01	 2.532E+01	-2.896E+01	 9.344E+01	 3.715E+02	 5.022E+02	 3.111E-01	 5.185E+02	 3.483E+02	 8.427E+01	 1.054E+01	 6.703E+01	 1.389E+00	-1.977E+03	 9.409E+01	 4.635E+03	 3.659E+00	 2.052E+02	 2.224E+00	 2.600E+00
  72.550	 5.510E+00	 3.299E-01	 3.775E-01	 2.504E+01	-2.726E+01	 9.471E+01	 3.513E+02	 4.940E+02	 4.652E-01	 5.094E+02	 3.285E+02	 8.363E+01	 1.054E+01	 6.905E+01	 1.073E+00	-1.977E+03	 1.051E+02	 4.744E+03	-9.739E+00	 2.051E+02	 2.223E+00	 2.600E+00
  72.600	 5.624E+00	 4.420E-01	 5.018E-01	 2.564E+01	-2.568E+01	 9.589E+01	 3.309E+02	 4.916E+02	 8.567E-01	 5.061E+02	 3.083E+02	 8.426E+01	 1.054E+01	 7.031E+01	 6.701E-01	-1.977E+03	 1.163E+02	 4.823E+03	-1.303E+01	 2.048E+02	 2.221E+00	 2.600E+00
  72.650	 5.691E+00	 1.424E-01	 4.809E-01	 2.505E+01	-2.397E+01	 9.693E+01	 3.094E+02	 4.792E+02	 8.806E-01	 4.927E+02	 2.874E+02	 8.140E+01	 1.053E+01	 7.083E+01	 5.818E-01	-1.977E+03	 1.183E+02	 4.870E+03	-2.800E+00	 2.045E+02	 2.219E+00	 2.600E+00
  72.700	 5.573E+00	 9.714E-02	 3.163E-01	 2.349E+01	-2.193E+01	 9.790E+01	 2.860E+02	 4.587E+02	 6.329E-01	 4.712E+02	 2.649E+02	 7.858E+01	 1.053E+01	 7.149E+01	 8.084E-01	-1.976E+03	 1.113E+02	 4.900E+03	 2.507E+00	 2.042E+02	 2.216E+00	 2.600E+00
  72.750	 5.643E+00	 2.885E-01	 3.261E-01	 2.283E+01	-2.000E+01	 9.877E+01	 2.633E+02	 4.455E+02	 8.568E-01	 4.569E+02	 2.428E+02	 7.796E+01	 1.052E+01	 7.168E+01	 1.211E+00	-1.977E+03	 9.959E+01	 4.897E+03	-8.225E-01	 2.038E+02	 2.214E+00	 2.600E+00
  72.800	 5.756E+00	 2.365E-01	 2.337E-02	 2.293E+01	-1.813E+01	 9.955E+01	 2.410E+02	 4.447E+02	 9.842E-01	 4.551E+02	 2.206E+02	 7.817E+01	 1.052E+01	 7.079E+01	 1.419E+00	-1.977E+03	 9.206E+01	 4.848E+03	-6.236E+00	 2.035E+02	 2.212E+00	 2.600E+00
  72.850	 5.832E+00	 1.570E-01	 2.014E-01	 2.332E+01	-1.617E+01	 1.002E+02	 2.180E+02	 4.511E+02	 1.169E+00	 4.605E+02	 1.973E+02	 7.868E+01	 1.051E+01	 6.913E+01	 1.362E+00	-1.976E+03	 9.115E+01	 4.762E+03	-2.992E+00	 2.033E+02	 2.210E+00	 2.600E+00
  72.900	 5.747E+00	 3.386E-01	 3.539E-01	 2.462E+01	-1.437E+01	 1.007E+02	 1.945E+02	 4.633E+02	 1.406E+00	 4.716E+02	 1.733E+02	 8.023E+01	 1.051E+01	 6.740E+01	 1.138E+00	-1.977E+03	 9.441E+01	 4.658E+03	 1.332E+01	 2.030E+02	 2.208E+00	 2.600E+00
  72.950	 5.633E+00	 4.874E-01	 1.252E-01	 2.361E+01	-1.201E+01	 1.012E+02	 1.683E+02	 4.623E+02	 1.302E+00	 4.694E+02	 1.472E+02	 7.960E+01	 1.050E+01	 6.621E+01	 8.983E-01	-1.977E+03	 9.708E+01	 4.553E+03	 1.589E+01	 2.028E+02	 2.206E+00	 2.600E+00
  73.000	 5.601E+00	 5.321E-01	 1.346E-01	 2.422E+01	-9.887E+00	 1.015E+02	 1.426E+02	 4.675E+02	 1.672E+00	 4.734E+02	 1.213E+02	 8.072E+01	 1.050E+01	 6.499E+01	 1.162E+00	-1.977E+03	 8.829E+01	 4.436E+03	 6.280E+00	 2.025E+02	 2.204E+00	 2.600E+00
  73.050	 5.644E+00	 6.009E-01	 2.378E-02	 2.374E+01	-7.673E+00	 1.018E+02	 1.164E+02	 4.663E+02	 1.537E+00	 4.711E+02	 9.513E+01	 8.073E+01	 1.049E+01	 6.311E+01	 1.301E+00	-1.977E+03	 7.949E+01	 4.293E+03	-1.542E+01	 2.023E+02	 2.203E+00	 2.600E+00
  73.100	 5.657E+00	 6.696E-01	 4.922E-02	 2.380E+01	-5.413E+00	 1.019E+02	 8.952E+01	 4.721E+02	 1.686E+00	 4.757E+02	 6.801E+01	 8.127E+01	 1.049E+01	 5.996E+01	 1.603E+00	-1.977E+03	 6.691E+01	 4.112E+03	-2.886E+01	 2.023E+02	 2.203E+00	 2.600E+00
  73.150	 5.479E+00	 7.112E-01	 1.332E-01	 2.490E+01	-3.237E+00	 1.019E+02	 6.172E+01	 4.829E+02	 1.836E+00	 4.852E+02	 3.975E+01	 8.268E+01	 1.049E+01	 5.649E+01	 1.926E+00	-1.978E+03	 5.517E+01	 3.925E+03	-1.979E+01	 2.023E+02	 2.203E+00	 2.600E+00
  73.200	 5.462E+00	 1.012E+00	 1.437E-02	 2.557E+01	-1.199E+00	 1.018E+02	 3.647E+01	 4.902E+02	 2.096E+00	 4.914E+02	 1.420E+01	 8.317E+01	 1.050E+01	 5.405E+01	 1.974E+00	-1.978E+03	 5.074E+01	 3.770E+03	-1.922E+01	 2.024E+02	 2.203E+00	 2.600E+00
  73.250	 5.641E+00	 7.784E-01	 3.849E-02	 2.503E+01	 9.150E-01	 1.017E+02	 1.003E+01	 4.800E+02	 2.074E+00	 4.800E+02	-1.175E+01	 8.243E+01	 1.050E+01	 5.351E+01	 1.788E+00	-1.978E+03	 5.287E+01	 3.667E+03	-2.040E+01	 2.024E+02	 2.203E+00	 2.600E+00
  73.300	 5.557E+00	 8.003E-01	 1.441E-01	 2.366E+01	 3.060E+00	 1.014E+02	-1.487E+01	 4.641E+02	 2.233E+00	 4.629E+02	-3.591E+01	 7.956E+01	 1.049E+01	 5.316E+01	 1.682E+00	-1.978E+03	 5.474E+01	 3.576E+03	-2.343E+01	 2.023E+02	 2.203E+00	 2.600E+00
  73.350	 5.447E+00	 7.466E-01	 1.689E-01	 2.335E+01	 5.202E+00	 1.010E+02	-3.981E+01	 4.589E+02	 2.215E+00	 4.566E+02	-6.059E+01	 7.869E+01	 1.049E+01	 5.197E+01	 1.559E+00	-1.978E+03	 5.670E+01	 3.469E+03	-2.609E+01	 2.023E+02	 2.203E+00	 2.600E+00
  73.400	 5.337E+00	 6.418E-01	 1.738E-01	 2.374E+01	 7.146E+00	 1.004E+02	-6.241E+01	 4.663E+02	 2.385E+00	 4.630E+02	-8.350E+01	 7.805E+01	 1.049E+01	 4.986E+01	 1.582E+00	-1.977E+03	 5.499E+01	 3.346E+03	-3.200E+01	 2.023E+02	 2.203E+00	 2.600E+00
  73.450	 5.325E+00	 4.932E-01	 9.697E-02	 2.425E+01	 9.108E+00	 9.978E+01	-8.507E+01	 4.741E+02	 2.405E+00	 4.698E+02	-1.065E+02	 7.791E+01	 1.049E+01	 4.827E+01	 1.732E+00	-1.977E+03	 5.050E+01	 3.243E+03	-2.294E+01	 2.023E+02	 2.203E+00	 2.600E+00
  73.500	 5.385E+00	 4.434E-01	-1.510E-01	 2.407E+01	 1.111E+01	 9.904E+01	-1.080E+02	 4.752E+02	 2.378E+00	 4.698E+02	-1.294E+02	 7.730E+01	 1.049E+01	 4.819E+01	 1.862E+00	-1.977E+03	 4.677E+01	 3.185E+03	-1.622E+01	 2.023E+02	 2.203E+00	 2.600E+00
  73.550	 5.459E+00	 5.723E-01	 2.956E-02	 2.437E+01	 1.300E+01	 9.817E+01	-1.300E+02	 4.810E+02	 2.657E+00	 4.746E+02	-1.517E+02	 7.756E+01	 1.049E+01	 4.864E+01	 2.013E+00	-1.977E+03	 4.408E+01	 3.148E+03	-1.468E+01	 2.023E+02	 2.203E+00	 2.600E+00
  73.600	 5.427E+00	 4.339E-01	 1.198E-01	 2.509E+01	 1.476E+01	 9.720E+01	-1.510E+02	 4.930E+02	 2.799E+00	 4.857E+02	-1.732E+02	 7.747E+01	 1.049E+01	 4.867E+01	 1.991E+00	-1.977E+03	 4.646E+01	 3.106E+03	-3.206E+01	 2.022E+02	 2.202E+00	 2.600E+00
  73.650	 5.520E+00	 5.247E-01	 1.030E-01	 2.567E+01	 1.635E+01	 9.609E+01	-1.701E+02	 5.061E+02	 2.819E+00	 4.978E+02	-1.929E+02	 7.679E+01	 1.049E+01	 4.759E+01	 1.621E+00	-1.977E+03	 5.701E+01	 3.044E+03	-5.032E+01	 2.022E+02	 2.202E+00	 2.600E+00
  73.700	 5.352E+00	 3.577E-01	 2.026E-01	 2.632E+01	 1.825E+01	 9.492E+01	-1.919E+02	 5.126E+02	 2.885E+00	 5.034E+02	-2.149E+02	 7.860E+01	 1.049E+01	 4.662E+01	 1.469E+00	-1.977E+03	 6.378E+01	 2.987E+03	-4.720E+01	 2.022E+02	 2.202E+00	 2.600E+00
  73.750	 5.308E+00	 2.583E-01	 2.416E-01	 2.549E+01	 1.980E+01	 9.361E+01	-2.108E+02	 5.030E+02	 2.937E+00	 4.929E+02	-2.334E+02	 7.670E+01	 1.049E+01	 4.611E+01	 1.312E+00	-1.977E+03	 6.917E+01	 2.950E+03	-5.480E+01	 2.022E+02	 2.202E+00	 2.600E+00
  73.800	 5.309E+00	 4.034E-01	 4.692E-01	 2.482E+01	 2.146E+01	 9.224E+01	-2.312E+02	 4.892E+02	 3.027E+00	 4.782E+02	-2.532E+02	 7.620E+01	 1.049E+01	 4.599E+01	 1.507E+00	-1.977E+03	 6.642E+01	 2.930E+03	-5.391E+01	 2.020E+02	 2.201E+00	 2.600E+00
  73.850	 5.288E+00	 1.902E-01	 4.274E-01	 2.426E+01	 2.303E+01	 9.082E+01	-2.496E+02	 4.780E+02	 3.102E+00	 4.662E+02	-2.710E+02	 7.546E+01	 1.049E+01	 4.585E+01	 1.588E+00	-1.976E+03	 6.519E+01	 2.916E+03	-6.434E+01	 2.019E+02	 2.200E+00	 2.600E+00
  73.900	 5.195E+00	 3.266E-01	 3.184E-01	 2.389E+01	 2.458E+01	 8.932E+01	-2.675E+02	 4.688E+02	 3.020E+00	 4.562E+02	-2.885E+02	 7.540E+01	 1.049E+01	 4.522E+01	 1.653E+00	-1.976E+03	 6.503E+01	 2.899E+03	-6.476E+01	 2.019E+02	 2.200E+00	 2.600E+00
  73.950	 5.236E+00	 3.209E-01	 2.199E-01	 2.392E+01	 2.591E+01	 8.774E+01	-2.844E+02	 4.597E+02	 3.070E+00	 4.463E+02	-3.050E+02	 7.561E+01	 1.049E+01	 4.463E+01	 1.617E+00	-1.976E+03	 6.798E+01	 2.891E+03	-6.087E+01	 2.018E+02	 2.200E+00	 2.600E+00
  74.000	 5.359E+00	 2.690E-01	 3.370E-01	 2.215E+01	 2.749E+01	 8.609E+01	-3.025E+02	 4.391E+02	 2.915E+00	 4.249E+02	-3.221E+02	 7.551E+01	 1.049E+01	 4.423E+01	 1.437E+00	-1.976E+03	 7.427E+01	 2.899E+03	-2.664E+01	 2.018E+02	 2.199E+00	 2.600E+00
  74.050	 5.208E+00	 3.068E-01	 2.954E-01	 2.125E+01	 2.877E+01	 8.437E+01	-3.193E+02	 4.234E+02	 2.763E+00	 4.084E+02	-3.382E+02	 7.491E+01	 1.048E+01	 4.454E+01	 1.433E+00	-1.976E+03	 7.739E+01	 2.935E+03	-8.127E+00	 2.017E+02	 2.199E+00	 2.600E+00
  74.100	 5.258E+00	 1.494E-01	 2.913E-01	 2.118E+01	 2.980E+01	 8.255E+01	-3.335E+02	 4.164E+02	 2.908E+00	 4.008E+02	-3.521E+02	 7.491E+01	 1.048E+01	 4.532E+01	 1.482E+00	-1.976E+03	 7.995E+01	 2.997E+03	 3.367E+00	 2.015E+02	 2.197E+00	 2.600E+00
  74.150	 5.248E+00	 2.245E-01	 3.245E-02	 2.048E+01	 3.114E+01	 8.070E+01	-3.486E+02	 4.094E+02	 2.814E+00	 3.932E+02	-3.668E+02	 7.467E+01	 1.048E+01	 4.694E+01	 1.491E+00	-1.977E+03	 8.430E+01	 3.087E+03	 1.429E+01	 2.013E+02	 2.195E+00	 2.600E+00
  74.200	 5.194E+00	 1.935E-01	 9.948E-02	 2.101E+01	 3.199E+01	 7.878E+01	-3.589E+02	 4.153E+02	 2.901E+00	 3.986E+02	-3.774E+02	 7.510E+01	 1.047E+01	 4.853E+01	 1.333E+00	-1.977E+03	 9.305E+01	 3.187E+03	 1.424E+01	 2.011E+02	 2.194E+00	 2.600E+00
  74.250	 5.083E+00	 2.494E-01	 9.906E-02	 2.144E+01	 3.295E+01	 7.683E+01	-3.702E+02	 4.240E+02	 2.886E+00	 4.068E+02	-3.891E+02	 7.707E+01	 1.047E+01	 5.056E+01	 1.210E+00	-1.977E+03	 1.017E+02	 3.301E+03	 1.961E+01	 2.011E+02	 2.194E+00	 2.600E+00
  74.300	 5.170E+00	 3.078E-01	 4.553E-01	 2.134E+01	 3.375E+01	 7.482E+01	-3.807E+02	 4.283E+02	 2.874E+00	 4.106E+02	-3.998E+02	 7.765E+01	 1.047E+01	 5.298E+01	 1.103E+00	-1.978E+03	 1.102E+02	 3.425E+03	 2.335E+01	 2.011E+02	 2.194E+00	 2.600E+00
  74.350	 5.091E+00	 2.112E-01	 5.854E-01	 2.234E+01	 3.427E+01	 7.276E+01	-3.892E+02	 4.384E+02	 2.964E+00	 4.203E+02	-4.087E+02	 7.978E+01	 1.047E+01	 5.486E+01	 1.031E+00	-1.978E+03	 1.188E+02	 3.537E+03	 1.803E+01	 2.010E+02	 2.194E+00	 2.600E+00
  74.400	 4.895E+00	 2.110E-01	 6.383E-01	 2.285E+01	 3.454E+01	 7.070E+01	-3.948E+02	 4.415E+02	 2.977E+00	 4.231E+02	-4.144E+02	 7.933E+01	 1.047E+01	 5.622E+01	 7.430E-01	-1.977E+03	 1.318E+02	 3.631E+03	 3.100E+00	 2.008E+02	 2.192E+00	 2.600E+00
  74.450	 4.975E+00	-4.137E-03	 5.737E-01	 2.172E+01	 3.531E+01	 6.858E+01	-4.025E+02	 4.292E+02	 2.841E+00	 4.105E+02	-4.215E+02	 7.940E+01	 1.046E+01	 5.607E+01	 4.332E-01	-1.978E+03	 1.445E+02	 3.686E+03	 1.231E+01	 2.005E+02	 2.190E+00	 2.600E+00
  74.500	 4.818E+00	 1.799E-02	 3.862E-01	 2.105E+01	 3.567E+01	 6.650E+01	-4.065E+02	 4.169E+02	 2.823E+00	 3.981E+02	-4.250E+02	 7.919E+01	 1.046E+01	 5.546E+01	 3.000E-01	-1.977E+03	 1.511E+02	 3.728E+03	 2.080E+01	 2.004E+02	 2.189E+00	 2.600E+00
  74.550	 4.936E+00	 8.485E-02	 7.768E-01	 2.144E+01	 3.538E+01	 6.442E+01	-4.066E+02	 4.064E+02	 2.989E+00	 3.875E+02	-4.246E+02	 7.994E+01	 1.046E+01	 5.547E+01	 4.126E-01	-1.977E+03	 1.496E+02	 3.786E+03	 2.725E+01	 2.003E+02	 2.188E+00	 2.600E+00
  74.600	 5.157E+00	 1.849E-01	 8.573E-01	 1.960E+01	 3.548E+01	 6.232E+01	-4.071E+02	 3.825E+02	 2.877E+00	 3.637E+02	-4.241E+02	 7.881E+01	 1.046E+01	 5.686E+01	 6.975E-01	-1.977E+03	 1.431E+02	 3.884E+03	 4.842E+01	 2.002E+02	 2.188E+00	 2.600E+00
  74.650	 5.276E+00	 1.390E-01	 7.458E-01	 1.829E+01	 3.586E+01	 6.023E+01	-4.083E+02	 3.661E+02	 2.622E+00	 3.472E+02	-4.245E+02	 7.828E+01	 1.045E+01	 5.992E+01	 1.038E+00	-1.978E+03	 1.363E+02	 4.018E+03	 6.648E+01	 2.000E+02	 2.186E+00	 2.600E+00
  74.700	 5.086E+00	 1.554E-01	 6.352E-01	 1.856E+01	 3.517E+01	 5.817E+01	-4.012E+02	 3.648E+02	 2.705E+00	 3.462E+02	-4.174E+02	 7.682E+01	 1.045E+01	 6.201E+01	 7.461E-01	-1.977E+03	 1.430E+02	 4.122E+03	 5.389E+01	 1.998E+02	 2.185E+00	 2.600E+00
  74.750	 5.072E+00	 2.000E-01	 5.151E-01	 1.893E+01	 3.494E+01	 5.613E+01	-3.965E+02	 3.729E+02	 2.643E+00	 3.545E+02	-4.130E+02	 7.729E+01	 1.045E+01	 6.237E+01	 5.338E-01	-1.977E+03	 1.485E+02	 4.171E+03	 4.695E+01	 1.997E+02	 2.184E+00	 2.600E+00
  74.800	 5.195E+00	 4.497E-01	 3.471E-01	 1.949E+01	 3.454E+01	 5.410E+01	-3.901E+02	 3.882E+02	 2.594E+00	 3.701E+02	-4.073E+02	 7.940E+01	 1.045E+01	 6.116E+01	 2.552E-01	-1.977E+03	 1.535E+02	 4.172E+03	 3.758E+01	 1.996E+02	 2.183E+00	 2.600E+00
  74.850	 4.967E+00	 2.039E-01	 1.315E-01	 2.066E+01	 3.384E+01	 5.207E+01	-3.822E+02	 4.065E+02	 2.713E+00	 3.887E+02	-4.002E+02	 8.095E+01	 1.045E+01	 6.026E+01	 3.269E-01	-1.977E+03	 1.484E+02	 4.173E+03	 2.452E+01	 1.995E+02	 2.183E+00	 2.600E+00
  74.900	 4.935E+00	 3.599E-01	 3.525E-01	 2.065E+01	 3.315E+01	 5.007E+01	-3.742E+02	 4.173E+02	 2.646E+00	 3.999E+02	-3.927E+02	 8.072E+01	 1.045E+01	 6.028E+01	 6.349E-01	-1.977E+03	 1.354E+02	 4.194E+03	 1.750E+01	 1.995E+02	 2.182E+00	 2.600E+00
  74.950	 5.090E+00	 6.098E-01	 3.531E-01	 2.130E+01	 3.252E+01	 4.809E+01	-3.665E+02	 4.323E+02	 2.685E+00	 4.152E+02	-3.857E+02	 8.174E+01	 1.044E+01	 6.120E+01	 1.087E+00	-1.977E+03	 1.185E+02	 4.235E+03	 1.044E+01	 1.994E+02	 2.182E+00	 2.600E+00
  75.000	 4.985E+00	 7.252E-01	 5.937E-01	 2.182E+01	 3.159E+01	 4.618E+01	-3.562E+02	 4.449E+02	 2.703E+00	 4.282E+02	-3.760E+02	 8.265E+01	 1.044E+01	 6.209E+01	 1.165E+00	-1.978E+03	 1.098E+02	 4.272E+03	 3.281E+00	 1.994E+02	 2.181E+00	 2.600E+00
  75.050	 5.094E+00	 8.684E-01	 3.874E-01	 2.301E+01	 3.041E+01	 4.433E+01	-3.430E+02	 4.591E+02	 2.974E+00	 4.430E+02	-3.635E+02	 8.282E+01	 1.044E+01	 6.251E+01	 1.211E+00	-1.978E+03	 1.036E+02	 4.293E+03	-1.204E+01	 1.994E+02	 2.182E+00	 2.600E+00
  75.100	 5.179E+00	 8.142E-01	 3.164E-01	 2.167E+01	 2.992E+01	 4.256E+01	-3.341E+02	 4.523E+02	 2.537E+00	 4.367E+02	-3.543E+02	 8.345E+01	 1.045E+01	 6.146E+01	 1.192E+00	-1.978E+03	 9.959E+01	 4.279E+03	-3.644E+00	 1.995E+02	 2.182E+00	 2.600E+00
  75.150	 5.194E+00	 8.959E-01	 4.027E-01	 2.136E+01	 2.850E+01	 4.088E+01	-3.186E+02	 4.481E+02	 2.482E+00	 4.332E+02	-3.386E+02	 8.210E+01	 1.045E+01	 6.116E+01	 1.074E+00	-1.978E+03	 9.678E+01	 4.276E+03	-2.446E+00	 1.995E+02	 2.183E+00	 2.600E+00
  75.200	 5.394E+00	 7.871E-01	 6.638E-01	 2.133E+01	 2.715E+01	 3.926E+01	-3.032E+02	 4.429E+02	 2.422E+00	 4.287E+02	-3.230E+02	 8.175E+01	 1.045E+01	 6.146E+01	 1.171E+00	-1.978E+03	 8.909E+01	 4.287E+03	 2.310E+00	 1.995E+02	 2.182E+00	 2.600E+00
  75.250	 5.291E+00	 7.394E-01	 6.403E-01	 2.150E+01	 2.572E+01	 3.769E+01	-2.862E+02	 4.389E+02	 2.433E+00	 4.254E+02	-3.058E+02	 8.055E+01	 1.044E+01	 6.196E+01	 1.504E+00	-1.977E+03	 7.619E+01	 4.300E+03	-3.785E+00	 1.994E+02	 2.182E+00	 2.600E+00
  75.300	 5.436E+00	 4.691E-01	 4.143E-01	 2.119E+01	 2.437E+01	 3.618E+01	-2.699E+02	 4.288E+02	 2.381E+00	 4.161E+02	-2.890E+02	 8.155E+01	 1.044E+01	 6.230E+01	 1.662E+00	-1.977E+03	 6.658E+01	 4.306E+03	 8.356E+00	 1.993E+02	 2.181E+00	 2.600E+00
  75.350	 5.314E+00	 6.553E-01	 5.622E-01	 2.056E+01	 2.268E+01	 3.480E+01	-2.519E+02	 4.114E+02	 2.289E+00	 3.996E+02	-2.703E+02	 8.072E+01	 1.044E+01	 6.222E+01	 1.757E+00	-1.977E+03	 5.869E+01	 4.300E+03	 1.019E+01	 1.993E+02	 2.181E+00	 2.600E+00
  75.400	 5.466E+00	 7.163E-01	 4.668E-01	 1.927E+01	 2.131E+01	 3.349E+01	-2.370E+02	 3.850E+02	 2.052E+00	 3.739E+02	-2.542E+02	 8.083E+01	 1.044E+01	 6.237E+01	 1.785E+00	-1.977E+03	 5.300E+01	 4.295E+03	 3.476E+01	 1.993E+02	 2.181E+00	 2.600E+00
  75.450	 5.359E+00	 4.914E-01	 4.409E-01	 1.829E+01	 1.970E+01	 3.227E+01	-2.206E+02	 3.616E+02	 2.135E+00	 3.512E+02	-2.368E+02	 8.018E+01	 1.044E+01	 6.295E+01	 1.805E+00	-1.977E+03	 4.765E+01	 4.295E+03	 5.119E+01	 1.992E+02	 2.180E+00	 2.600E+00
  75.500	 5.482E+00	 3.395E-01	 5.220E-01	 1.720E+01	 1.810E+01	 3.116E+01	-2.043E+02	 3.387E+02	 1.951E+00	 3.291E+02	-2.194E+02	 8.039E+01	 1.044E+01	 6.375E+01	 1.801E+00	-1.978E+03	 4.258E+01	 4.294E+03	 7.245E+01	 1.991E+02	 2.179E+00	 2.600E+00
  75.550	 5.598E+00	 4.411E-01	 5.247E-01	 1.600E+01	 1.677E+01	 3.015E+01	-1.876E+02	 3.225E+02	 1.659E+00	 3.137E+02	-2.020E+02	 8.033E+01	 1.044E+01	 6.420E+01	 2.090E+00	-1.978E+03	 3.209E+01	 4.277E+03	 6.297E+01	 1.990E+02	 2.179E+00	 2.600E+00
  75.600	 5.790E+00	 3.354E-01	 8.013E-01	 1.642E+01	 1.467E+01	 2.923E+01	-1.647E+02	 3.202E+02	 1.799E+00	 3.124E+02	-1.791E+02	 8.043E+01	 1.043E+01	 6.467E+01	 2.216E+00	-1.977E+03	 2.475E+01	 4.247E+03	 3.265E+01	 1.989E+02	 2.178E+00	 2.600E+00
  75.650	 5.579E+00	 4.323E-01	 8.083E-01	 1.604E+01	 1.275E+01	 2.843E+01	-1.405E+02	 3.201E+02	 1.687E+00	 3.134E+02	-1.548E+02	 7.899E+01	 1.043E+01	 6.427E+01	 2.181E+00	-1.977E+03	 2.110E+01	 4.182E+03	 5.920E+00	 1.988E+02	 2.177E+00	 2.600E+00
  75.700	 5.607E+00	 3.721E-01	 7.835E-01	 1.694E+01	 1.044E+01	 2.771E+01	-1.120E+02	 3.364E+02	 1.724E+00	 3.310E+02	-1.271E+02	 7.806E+01	 1.043E+01	 6.304E+01	 1.928E+00	-1.976E+03	 2.164E+01	 4.079E+03	-2.963E+01	 1.987E+02	 2.176E+00	 2.600E+00
  75.750	 5.567E+00	 3.393E-01	 1.072E+00	 1.770E+01	 8.514E+00	 2.708E+01	-8.486E+01	 3.594E+02	 1.448E+00	 3.552E+02	-1.011E+02	 7.811E+01	 1.043E+01	 6.008E+01	 1.910E+00	-1.976E+03	 1.702E+01	 3.921E+03	-4.982E+01	 1.986E+02	 2.176E+00	 2.600E+00
[...]
 656.100	 7.120E+00	-5.264E-01	-7.669E-02	 2.552E+01	 2.257E+01	 1.029E+02	-2.448E+02	 5.009E+02	 3.399E+00	 4.893E+02	-2.673E+02	 9.898E+01	 1.133E+01	 6.775E+01	 3.058E-01	-1.982E+03	 1.990E+02	 4.822E+03	 1.139E+02	 2.544E+02	 2.567E+00	 2.600E+00
 656.150	 7.141E+00	-4.527E-01	-3.781E-01	 2.598E+01	 2.398E+01	 1.015E+02	-2.615E+02	 5.095E+02	 3.393E+00	 4.972E+02	-2.844E+02	 9.942E+01	 1.134E+01	 6.570E+01	 8.291E-01	-1.981E+03	 1.625E+02	 4.718E+03	 1.161E+02	 2.552E+02	 2.572E+00	 2.600E+00
 656.200	 7.338E+00	-5.249E-01	-3.880E-01	 2.675E+01	 2.567E+01	 9.995E+01	-2.808E+02	 5.261E+02	 3.578E+00	 5.129E+02	-3.044E+02	 1.009E+02	 1.135E+01	 6.270E+01	 1.747E+00	-1.981E+03	 1.160E+02	 4.604E+03	 1.118E+02	 2.559E+02	 2.577E+00	 2.600E+00
 656.250	 7.339E+00	-4.942E-01	-2.683E-01	 2.705E+01	 2.737E+01	 9.831E+01	-3.014E+02	 5.396E+02	 3.549E+00	 5.254E+02	-3.256E+02	 1.007E+02	 1.136E+01	 6.104E+01	 2.700E+00	-1.981E+03	 6.945E+01	 4.540E+03	 8.733E+01	 2.568E+02	 2.583E+00	 2.600E+00
 656.300	 7.320E+00	-5.213E-01	-2.672E-01	 2.714E+01	 2.896E+01	 9.662E+01	-3.211E+02	 5.520E+02	 3.572E+00	 5.368E+02	-3.458E+02	 9.929E+01	 1.138E+01	 6.171E+01	 3.212E+00	-1.981E+03	 3.589E+01	 4.556E+03	 5.340E+01	 2.577E+02	 2.589E+00	 2.600E+00
 656.350	 7.529E+00	-4.683E-01	-2.275E-01	 2.773E+01	 3.051E+01	 9.492E+01	-3.419E+02	 5.605E+02	 3.764E+00	 5.444E+02	-3.669E+02	 1.005E+02	 1.139E+01	 6.408E+01	 3.237E+00	-1.982E+03	 1.815E+01	 4.630E+03	 3.813E+01	 2.586E+02	 2.595E+00	 2.600E+00
 656.400	 7.628E+00	-4.926E-01	 4.019E-02	 2.819E+01	 3.162E+01	 9.313E+01	-3.576E+02	 5.666E+02	 3.942E+00	 5.498E+02	-3.829E+02	 9.978E+01	 1.140E+01	 6.599E+01	 2.987E+00	-1.982E+03	 1.100E+01	 4.710E+03	 2.349E+01	 2.595E+02	 2.601E+00	 2.600E+00
 656.450	 7.453E+00	-5.316E-01	-9.360E-02	 2.790E+01	 3.290E+01	 9.132E+01	-3.731E+02	 5.625E+02	 3.893E+00	 5.450E+02	-3.982E+02	 9.996E+01	 1.141E+01	 6.730E+01	 2.936E+00	-1.982E+03	 2.349E+00	 4.782E+03	 2.542E+01	 2.604E+02	 2.606E+00	 2.600E+00
 656.500	 7.715E+00	-4.797E-01	 3.690E-03	 2.792E+01	 3.348E+01	 8.943E+01	-3.806E+02	 5.562E+02	 3.936E+00	 5.384E+02	-4.054E+02	 9.983E+01	 1.143E+01	 6.717E+01	 2.982E+00	-1.982E+03	-7.936E+00	 4.827E+03	 2.521E+01	 2.611E+02	 2.611E+00	 2.600E+00
 656.550	 7.784E+00	-9.867E-02	-2.631E-01	 2.653E+01	 3.433E+01	 8.747E+01	-3.878E+02	 5.353E+02	 3.709E+00	 5.172E+02	-4.117E+02	 9.991E+01	 1.144E+01	 6.687E+01	 3.393E+00	-1.982E+03	-2.459E+01	 4.874E+03	 4.733E+01	 2.618E+02	 2.616E+00	 2.600E+00
 656.600	 7.664E+00	-1.211E-01	 5.406E-02	 2.593E+01	 3.443E+01	 8.542E+01	-3.887E+02	 5.166E+02	 3.698E+00	 4.985E+02	-4.118E+02	 9.885E+01	 1.145E+01	 6.653E+01	 3.918E+00	-1.980E+03	-4.037E+01	 4.935E+03	 6.474E+01	 2.625E+02	 2.621E+00	 2.600E+00
 656.650	 7.685E+00	-5.768E-02	-1.386E-02	 2.402E+01	 3.500E+01	 8.334E+01	-3.926E+02	 4.909E+02	 3.308E+00	 4.726E+02	-4.145E+02	 9.769E+01	 1.145E+01	 6.780E+01	 4.088E+00	-1.980E+03	-4.404E+01	 5.046E+03	 9.931E+01	 2.630E+02	 2.624E+00	 2.600E+00
 656.700	 7.596E+00	-4.653E-02	 1.155E-01	 2.428E+01	 3.521E+01	 8.118E+01	-3.955E+02	 4.806E+02	 3.633E+00	 4.621E+02	-4.169E+02	 9.980E+01	 1.146E+01	 7.064E+01	 3.868E+00	-1.980E+03	-3.380E+01	 5.207E+03	 1.233E+02	 2.635E+02	 2.627E+00	 2.600E+00
 656.750	 7.463E+00	-1.084E-01	 4.537E-01	 2.349E+01	 3.530E+01	 7.903E+01	-3.990E+02	 4.681E+02	 3.421E+00	 4.495E+02	-4.199E+02	 9.915E+01	 1.147E+01	 7.447E+01	 3.250E+00	-1.981E+03	-1.134E+01	 5.398E+03	 1.403E+02	 2.640E+02	 2.631E+00	 2.600E+00
 656.800	 7.550E+00	-7.355E-02	 3.648E-01	 2.306E+01	 3.586E+01	 7.679E+01	-4.069E+02	 4.617E+02	 3.356E+00	 4.427E+02	-4.274E+02	 9.908E+01	 1.147E+01	 7.735E+01	 3.164E+00	-1.981E+03	 4.388E+00	 5.568E+03	 1.502E+02	 2.645E+02	 2.634E+00	 2.600E+00
 656.850	 7.630E+00	 5.994E-02	 3.615E-01	 2.379E+01	 3.591E+01	 7.460E+01	-4.118E+02	 4.651E+02	 3.511E+00	 4.460E+02	-4.325E+02	 9.990E+01	 1.148E+01	 7.935E+01	 2.937E+00	-1.981E+03	 2.475E+01	 5.707E+03	 1.467E+02	 2.647E+02	 2.635E+00	 2.600E+00
 656.900	 7.499E+00	 1.429E-01	 3.739E-01	 2.410E+01	 3.576E+01	 7.239E+01	-4.128E+02	 4.683E+02	 3.552E+00	 4.491E+02	-4.336E+02	 1.007E+02	 1.148E+01	 7.963E+01	 2.633E+00	-1.981E+03	 4.897E+01	 5.800E+03	 1.369E+02	 2.650E+02	 2.637E+00	 2.600E+00
 656.950	 7.356E+00	 3.561E-01	 1.764E-01	 2.374E+01	 3.564E+01	 7.023E+01	-4.108E+02	 4.705E+02	 3.347E+00	 4.514E+02	-4.317E+02	 1.007E+02	 1.149E+01	 7.982E+01	 2.243E+00	-1.981E+03	 7.713E+01	 5.886E+03	 1.274E+02	 2.652E+02	 2.639E+00	 2.600E+00
 657.000	 7.514E+00	 3.756E-01	 2.064E-01	 2.392E+01	 3.530E+01	 6.812E+01	-4.045E+02	 4.779E+02	 3.242E+00	 4.590E+02	-4.258E+02	 1.002E+02	 1.149E+01	 8.142E+01	 1.802E+00	-1.981E+03	 1.080E+02	 5.998E+03	 1.159E+02	 2.656E+02	 2.641E+00	 2.600E+00
 657.050	 7.637E+00	 2.504E-01	 1.021E-01	 2.518E+01	 3.430E+01	 6.598E+01	-3.916E+02	 4.929E+02	 3.494E+00	 4.746E+02	-4.136E+02	 9.995E+01	 1.150E+01	 8.353E+01	 1.372E+00	-1.981E+03	 1.397E+02	 6.116E+03	 9.076E+01	 2.659E+02	 2.643E+00	 2.600E+00
 657.100	 7.674E+00	 3.894E-01	 1.666E-01	 2.501E+01	 3.326E+01	 6.388E+01	-3.775E+02	 4.978E+02	 3.256E+00	 4.802E+02	-3.997E+02	 9.937E+01	 1.150E+01	 8.480E+01	 8.142E-01	-1.980E+03	 1.735E+02	 6.209E+03	 7.890E+01	 2.663E+02	 2.646E+00	 2.600E+00
 657.150	 7.623E+00	 9.143E-02	 1.031E-01	 2.602E+01	 3.201E+01	 6.177E+01	-3.630E+02	 5.050E+02	 3.370E+00	 4.880E+02	-3.855E+02	 1.006E+02	 1.151E+01	 8.574E+01	 5.205E-01	-1.980E+03	 2.016E+02	 6.284E+03	 6.756E+01	 2.666E+02	 2.648E+00	 2.600E+00
 657.200	 7.636E+00	-3.686E-02	 1.945E-01	 2.576E+01	 3.091E+01	 5.970E+01	-3.496E+02	 5.022E+02	 3.305E+00	 4.858E+02	-3.720E+02	 1.015E+02	 1.151E+01	 8.603E+01	 2.242E-01	-1.980E+03	 2.289E+02	 6.335E+03	 6.525E+01	 2.669E+02	 2.650E+00	 2.600E+00
 657.250	 7.686E+00	-2.037E-01	-1.086E-01	 2.606E+01	 2.968E+01	 5.773E+01	-3.377E+02	 4.960E+02	 3.332E+00	 4.802E+02	-3.598E+02	 1.024E+02	 1.151E+01	 8.713E+01	-9.796E-02	-1.980E+03	 2.557E+02	 6.393E+03	 7.728E+01	 2.672E+02	 2.652E+00	 2.600E+00
 657.300	 7.833E+00	-3.260E-01	-2.607E-01	 2.562E+01	 2.869E+01	 5.580E+01	-3.276E+02	 4.847E+02	 3.280E+00	 4.694E+02	-3.493E+02	 1.029E+02	 1.152E+01	 8.814E+01	-2.579E-01	-1.980E+03	 2.792E+02	 6.444E+03	 7.440E+01	 2.674E+02	 2.653E+00	 2.600E+00
 657.350	 7.927E+00	-1.998E-01	-2.280E-01	 2.512E+01	 2.745E+01	 5.400E+01	-3.167E+02	 4.690E+02	 3.239E+00	 4.541E+02	-3.377E+02	 1.023E+02	 1.152E+01	 8.968E+01	-7.145E-01	-1.980E+03	 3.077E+02	 6.497E+03	 6.778E+01	 2.677E+02	 2.655E+00	 2.600E+00
 657.400	 7.779E+00	-4.587E-01	-1.739E-01	 2.403E+01	 2.637E+01	 5.233E+01	-3.055E+02	 4.504E+02	 3.193E+00	 4.360E+02	-3.256E+02	 1.014E+02	 1.153E+01	 9.115E+01	-1.136E+00	-1.980E+03	 3.340E+02	 6.535E+03	 6.946E+01	 2.681E+02	 2.658E+00	 2.600E+00
 657.450	 7.787E+00	-1.384E-01	-1.380E-01	 2.277E+01	 2.513E+01	 5.079E+01	-2.922E+02	 4.306E+02	 3.052E+00	 4.169E+02	-3.114E+02	 1.019E+02	 1.153E+01	 9.192E+01	-1.540E+00	-1.980E+03	 3.565E+02	 6.539E+03	 7.795E+01	 2.685E+02	 2.660E+00	 2.600E+00
 657.500	 7.964E+00	-1.854E-01	-8.903E-02	 2.228E+01	 2.349E+01	 4.938E+01	-2.737E+02	 4.224E+02	 2.972E+00	 4.096E+02	-2.925E+02	 1.021E+02	 1.154E+01	 9.223E+01	-1.802E+00	-1.981E+03	 3.714E+02	 6.508E+03	 8.952E+01	 2.689E+02	 2.663E+00	 2.600E+00
 657.550	 8.081E+00	-3.216E-01	-2.244E-01	 2.265E+01	 2.164E+01	 4.807E+01	-2.505E+02	 4.293E+02	 3.020E+00	 4.175E+02	-2.697E+02	 1.026E+02	 1.155E+01	 9.158E+01	-1.725E+00	-1.981E+03	 3.746E+02	 6.428E+03	 1.050E+02	 2.694E+02	 2.667E+00	 2.600E+00
 657.600	 8.082E+00	-3.967E-01	-2.534E-01	 2.380E+01	 1.942E+01	 4.687E+01	-2.220E+02	 4.506E+02	 3.156E+00	 4.400E+02	-2.422E+02	 1.025E+02	 1.155E+01	 8.874E+01	-1.432E+00	-1.981E+03	 3.690E+02	 6.275E+03	 9.489E+01	 2.700E+02	 2.670E+00	 2.600E+00
 657.650	 8.010E+00	-2.562E-01	-3.822E-01	 2.444E+01	 1.724E+01	 4.581E+01	-1.922E+02	 4.745E+02	 2.903E+00	 4.653E+02	-2.135E+02	 1.016E+02	 1.156E+01	 8.425E+01	-1.283E+00	-1.980E+03	 3.635E+02	 6.066E+03	 9.125E+01	 2.707E+02	 2.675E+00	 2.600E+00
 657.700	 7.984E+00	-3.368E-01	-3.848E-01	 2.677E+01	 1.484E+01	 4.476E+01	-1.613E+02	 5.137E+02	 3.165E+00	 5.059E+02	-1.844E+02	 1.039E+02	 1.158E+01	 7.999E+01	-9.943E-01	-1.981E+03	 3.540E+02	 5.854E+03	 9.811E+01	 2.716E+02	 2.681E+00	 2.600E+00
 657.750	 7.994E+00	-1.282E-01	-3.131E-01	 2.871E+01	 1.241E+01	 4.379E+01	-1.305E+02	 5.544E+02	 3.288E+00	 5.479E+02	-1.555E+02	 1.060E+02	 1.159E+01	 7.676E+01	-1.089E+00	-1.981E+03	 3.506E+02	 5.669E+03	 1.196E+02	 2.725E+02	 2.687E+00	 2.600E+00
 657.800	 8.065E+00	-9.302E-03	-3.409E-01	 3.024E+01	 1.012E+01	 4.290E+01	-1.012E+02	 5.951E+02	 3.263E+00	 5.899E+02	-1.281E+02	 1.071E+02	 1.161E+01	 7.469E+01	-1.178E+00	-1.982E+03	 3.455E+02	 5.522E+03	 1.349E+02	 2.737E+02	 2.694E+00	 2.600E+00
 657.850	 7.903E+00	-1.584E-01	-5.224E-01	 3.160E+01	 8.326E+00	 4.214E+01	-7.642E+01	 6.320E+02	 3.289E+00	 6.278E+02	-1.050E+02	 1.090E+02	 1.162E+01	 7.277E+01	-8.466E-01	-1.983E+03	 3.302E+02	 5.392E+03	 1.606E+02	 2.748E+02	 2.702E+00	 2.600E+00
 657.900	 7.882E+00	-3.926E-01	-3.272E-01	 3.195E+01	 6.199E+00	 4.163E+01	-4.966E+01	 6.569E+02	 2.977E+00	 6.540E+02	-7.941E+01	 1.085E+02	 1.164E+01	 7.061E+01	-3.107E-01	-1.983E+03	 3.089E+02	 5.274E+03	 1.510E+02	 2.763E+02	 2.711E+00	 2.600E+00
 657.950	 7.741E+00	-2.163E-01	-4.009E-02	 3.350E+01	 3.692E+00	 4.128E+01	-2.033E+01	 6.804E+02	 3.145E+00	 6.788E+02	-5.118E+01	 1.093E+02	 1.166E+01	 6.899E+01	 2.069E-01	-1.983E+03	 2.877E+02	 5.186E+03	 1.514E+02	 2.774E+02	 2.719E+00	 2.600E+00
 658.000	 7.770E+00	-5.861E-01	-4.379E-04	 3.445E+01	 7.694E-01	 4.112E+01	 1.431E+01	 6.916E+02	 3.190E+00	 6.915E+02	-1.708E+01	 1.100E+02	 1.168E+01	 6.804E+01	-7.084E-03	-1.984E+03	 2.817E+02	 5.138E+03	 1.406E+02	 2.786E+02	 2.727E+00	 2.600E+00
 658.050	 7.704E+00	-2.908E-01	 1.493E-01	 3.444E+01	-1.885E+00	 4.115E+01	 4.955E+01	 6.898E+02	 2.994E+00	 6.913E+02	 1.821E+01	 1.097E+02	 1.169E+01	 6.842E+01	-1.709E-01	-1.984E+03	 2.758E+02	 5.148E+03	 1.219E+02	 2.799E+02	 2.735E+00	 2.600E+00
 658.100	 7.539E+00	-6.183E-01	 2.951E-01	 3.347E+01	-4.454E+00	 4.133E+01	 8.525E+01	 6.745E+02	 2.656E+00	 6.776E+02	 5.457E+01	 1.075E+02	 1.171E+01	 7.003E+01	-9.278E-02	-1.983E+03	 2.645E+02	 5.212E+03	 9.621E+01	 2.811E+02	 2.743E+00	 2.600E+00
 658.150	 7.511E+00	-5.134E-01	 3.443E-01	 3.247E+01	-7.229E+00	 4.163E+01	 1.225E+02	 6.568E+02	 2.384E+00	 6.616E+02	 9.262E+01	 1.056E+02	 1.173E+01	 7.226E+01	 1.292E-01	-1.983E+03	 2.488E+02	 5.306E+03	 7.707E+01	 2.823E+02	 2.751E+00	 2.600E+00
 658.200	 7.524E+00	-6.465E-01	 2.565E-01	 3.207E+01	-9.985E+00	 4.203E+01	 1.582E+02	 6.433E+02	 2.212E+00	 6.498E+02	 1.288E+02	 1.044E+02	 1.174E+01	 7.437E+01	 5.634E-01	-1.982E+03	 2.282E+02	 5.405E+03	 6.119E+01	 2.834E+02	 2.758E+00	 2.600E+00
 658.250	 7.470E+00	-5.295E-01	 2.663E-01	 3.131E+01	-1.236E+01	 4.258E+01	 1.884E+02	 6.303E+02	 1.875E+00	 6.382E+02	 1.596E+02	 1.024E+02	 1.176E+01	 7.551E+01	 1.073E+00	-1.981E+03	 2.077E+02	 5.485E+03	 4.502E+01	 2.844E+02	 2.764E+00	 2.600E+00
 658.300	 7.381E+00	-5.032E-01	 8.684E-02	 3.168E+01	-1.474E+01	 4.324E+01	 2.156E+02	 6.264E+02	 1.865E+00	 6.356E+02	 1.870E+02	 1.023E+02	 1.177E+01	 7.557E+01	 1.298E+00	-1.981E+03	 1.964E+02	 5.540E+03	 5.373E+01	 2.852E+02	 2.770E+00	 2.600E+00
 658.350	 7.544E+00	-3.116E-01	 2.347E-01	 3.134E+01	-1.702E+01	 4.402E+01	 2.403E+02	 6.226E+02	 1.806E+00	 6.329E+02	 2.118E+02	 1.019E+02	 1.178E+01	 7.544E+01	 1.071E+00	-1.981E+03	 1.984E+02	 5.594E+03	 4.782E+01	 2.859E+02	 2.774E+00	 2.600E+00
 658.400	 7.496E+00	-2.068E-01	 4.810E-01	 3.092E+01	-1.864E+01	 4.495E+01	 2.579E+02	 6.196E+02	 1.520E+00	 6.307E+02	 2.296E+02	 1.030E+02	 1.179E+01	 7.589E+01	 8.650E-01	-1.980E+03	 2.039E+02	 5.669E+03	 4.957E+01	 2.866E+02	 2.779E+00	 2.600E+00
 658.450	 7.534E+00	-4.020E-01	 5.025E-01	 3.210E+01	-2.083E+01	 4.594E+01	 2.793E+02	 6.322E+02	 1.622E+00	 6.442E+02	 2.504E+02	 1.025E+02	 1.179E+01	 7.836E+01	 5.043E-01	-1.981E+03	 2.131E+02	 5.794E+03	 6.547E+01	 2.872E+02	 2.783E+00	 2.600E+00
 658.500	 7.577E+00	-4.228E-01	 2.693E-01	 3.254E+01	-2.269E+01	 4.708E+01	 2.994E+02	 6.437E+02	 1.449E+00	 6.567E+02	 2.699E+02	 1.044E+02	 1.180E+01	 8.095E+01	 3.154E-01	-1.981E+03	 2.176E+02	 5.924E+03	 6.363E+01	 2.878E+02	 2.786E+00	 2.600E+00
 658.550	 7.676E+00	-4.651E-01	 7.422E-02	 3.312E+01	-2.472E+01	 4.837E+01	 3.224E+02	 6.539E+02	 1.375E+00	 6.679E+02	 2.924E+02	 1.054E+02	 1.181E+01	 8.249E+01	 6.533E-01	-1.981E+03	 2.105E+02	 6.026E+03	 6.378E+01	 2.882E+02	 2.789E+00	 2.600E+00
 658.600	 7.672E+00	-4.910E-01	 8.822E-02	 3.212E+01	-2.660E+01	 4.980E+01	 3.472E+02	 6.508E+02	 8.796E-01	 6.659E+02	 3.173E+02	 1.046E+02	 1.181E+01	 8.256E+01	 9.203E-01	-1.980E+03	 2.048E+02	 6.085E+03	 3.625E+01	 2.886E+02	 2.791E+00	 2.600E+00
 658.650	 7.720E+00	-4.135E-01	-7.602E-02	 3.333E+01	-2.908E+01	 5.129E+01	 3.773E+02	 6.593E+02	 9.835E-01	 6.758E+02	 3.470E+02	 1.051E+02	 1.182E+01	 8.154E+01	 8.651E-01	-1.981E+03	 2.076E+02	 6.114E+03	 4.555E+01	 2.888E+02	 2.793E+00	 2.600E+00
 658.700	 7.899E+00	-2.444E-01	-1.303E-01	 3.274E+01	-3.102E+01	 5.289E+01	 4.031E+02	 6.528E+02	 5.714E-01	 6.704E+02	 3.730E+02	 1.042E+02	 1.182E+01	 8.048E+01	 5.741E-01	-1.980E+03	 2.174E+02	 6.147E+03	 5.171E+01	 2.890E+02	 2.794E+00	 2.600E+00
 658.750	 7.844E+00	-4.341E-01	-5.074E-02	 3.342E+01	-3.297E+01	 5.452E+01	 4.278E+02	 6.581E+02	 6.031E-01	 6.768E+02	 3.975E+02	 1.049E+02	 1.182E+01	 8.158E+01	 3.604E-01	-1.981E+03	 2.261E+02	 6.236E+03	 7.741E+01	 2.893E+02	 2.796E+00	 2.600E+00
 658.800	 7.821E+00	-4.704E-01	-1.053E-01	 3.290E+01	-3.448E+01	 5.625E+01	 4.454E+02	 6.477E+02	 4.689E-01	 6.673E+02	 4.156E+02	 1.050E+02	 1.183E+01	 8.459E+01	 4.598E-01	-1.981E+03	 2.278E+02	 6.379E+03	 8.985E+01	 2.895E+02	 2.797E+00	 2.600E+00
 658.850	 7.768E+00	-6.138E-01	 1.565E-01	 3.215E+01	-3.613E+01	 5.809E+01	 4.603E+02	 6.287E+02	 4.849E-01	 6.490E+02	 4.313E+02	 1.036E+02	 1.183E+01	 8.887E+01	 5.475E-01	-1.981E+03	 2.293E+02	 6.550E+03	 9.061E+01	 2.897E+02	 2.799E+00	 2.600E+00
 658.900	 7.761E+00	-4.563E-01	-2.677E-01	 3.193E+01	-3.733E+01	 6.008E+01	 4.712E+02	 6.119E+02	 5.049E-01	 6.327E+02	 4.430E+02	 1.035E+02	 1.183E+01	 9.249E+01	 6.357E-01	-1.981E+03	 2.329E+02	 6.694E+03	 9.440E+01	 2.898E+02	 2.799E+00	 2.600E+00
 658.950	 7.805E+00	-5.957E-01	-1.388E-02	 3.021E+01	-3.804E+01	 6.221E+01	 4.802E+02	 5.898E+02	 3.453E-01	 6.110E+02	 4.530E+02	 1.025E+02	 1.183E+01	 9.399E+01	 2.773E-01	-1.980E+03	 2.469E+02	 6.770E+03	 8.674E+01	 2.899E+02	 2.800E+00	 2.600E+00
 659.000	 7.837E+00	-4.230E-01	 1.188E-01	 3.129E+01	-3.952E+01	 6.440E+01	 4.954E+02	 5.916E+02	 8.283E-01	 6.134E+02	 4.681E+02	 1.035E+02	 1.183E+01	 9.421E+01	-2.848E-01	-1.980E+03	 2.640E+02	 6.792E+03	 1.014E+02	 2.902E+02	 2.802E+00	 2.600E+00
 659.050	 7.927E+00	-4.649E-01	 2.894E-02	 3.119E+01	-4.026E+01	 6.669E+01	 5.062E+02	 5.918E+02	 6.019E-01	 6.141E+02	 4.789E+02	 1.049E+02	 1.184E+01	 9.428E+01	-5.155E-01	-1.980E+03	 2.710E+02	 6.789E+03	 9.043E+01	 2.905E+02	 2.804E+00	 2.600E+00
 659.100	 7.800E+00	-6.126E-01	 1.336E-02	 3.135E+01	-4.140E+01	 6.901E+01	 5.219E+02	 6.025E+02	 5.165E-01	 6.256E+02	 4.940E+02	 1.048E+02	 1.185E+01	 9.422E+01	-2.836E-01	-1.980E+03	 2.639E+02	 6.764E+03	 9.394E+01	 2.910E+02	 2.807E+00	 2.600E+00
 659.150	 7.765E+00	-4.391E-01	-9.995E-02	 3.197E+01	-4.238E+01	 7.138E+01	 5.375E+02	 6.217E+02	 2.244E-01	 6.455E+02	 5.087E+02	 1.048E+02	 1.185E+01	 9.362E+01	 3.059E-01	-1.981E+03	 2.465E+02	 6.709E+03	 1.035E+02	 2.914E+02	 2.810E+00	 2.600E+00
 659.200	 7.876E+00	-2.579E-01	-3.167E-01	 3.303E+01	-4.337E+01	 7.363E+01	 5.529E+02	 6.444E+02	 2.025E-01	 6.688E+02	 5.231E+02	 1.062E+02	 1.186E+01	 9.296E+01	 5.607E-01	-1.981E+03	 2.346E+02	 6.627E+03	 1.048E+02	 2.917E+02	 2.812E+00	 2.600E+00
 659.250	 7.852E+00	-1.412E-01	-3.108E-01	 3.429E+01	-4.418E+01	 7.591E+01	 5.665E+02	 6.716E+02	 2.749E-02	 6.966E+02	 5.355E+02	 1.057E+02	 1.186E+01	 9.032E+01	 6.807E-01	-1.982E+03	 2.265E+02	 6.483E+03	 1.231E+02	 2.922E+02	 2.815E+00	 2.600E+00
 659.300	 7.840E+00	-2.680E-01	-3.890E-01	 3.675E+01	-4.504E+01	 7.815E+01	 5.778E+02	 7.065E+02	 1.295E-01	 7.320E+02	 5.451E+02	 1.082E+02	 1.187E+01	 8.695E+01	 4.033E-01	-1.983E+03	 2.264E+02	 6.306E+03	 1.438E+02	 2.928E+02	 2.819E+00	 2.600E+00
 659.350	 7.603E+00	-1.626E-01	-3.719E-01	 3.579E+01	-4.481E+01	 8.042E+01	 5.786E+02	 7.198E+02	-3.150E-01	 7.453E+02	 5.453E+02	 1.074E+02	 1.188E+01	 8.308E+01	 4.550E-01	-1.982E+03	 2.188E+02	 6.112E+03	 1.437E+02	 2.936E+02	 2.824E+00	 2.600E+00
 659.400	 7.569E+00	-1.837E-01	-4.017E-01	 3.781E+01	-4.492E+01	 8.274E+01	 5.770E+02	 7.456E+02	 1.604E-02	 7.710E+02	 5.426E+02	 1.088E+02	 1.189E+01	 7.936E+01	 8.345E-01	-1.983E+03	 2.039E+02	 5.925E+03	 1.652E+02	 2.944E+02	 2.829E+00	 2.600E+00
 659.450	 7.517E+00	-4.317E-02	-4.989E-01	 3.721E+01	-4.413E+01	 8.514E+01	 5.673E+02	 7.497E+02	-1.751E-01	 7.747E+02	 5.327E+02	 1.081E+02	 1.190E+01	 7.670E+01	 1.311E+00	-1.982E+03	 1.871E+02	 5.774E+03	 1.659E+02	 2.952E+02	 2.834E+00	 2.600E+00
 659.500	 7.645E+00	-9.374E-02	-4.863E-01	 3.686E+01	-4.322E+01	 8.762E+01	 5.570E+02	 7.530E+02	-4.225E-01	 7.775E+02	 5.222E+02	 1.074E+02	 1.191E+01	 7.520E+01	 1.636E+00	-1.982E+03	 1.750E+02	 5.663E+03	 1.718E+02	 2.959E+02	 2.839E+00	 2.600E+00
 659.550	 7.537E+00	-1.124E-01	-5.481E-01	 3.794E+01	-4.303E+01	 9.005E+01	 5.524E+02	 7.592E+02	 2.726E-01	 7.835E+02	 5.174E+02	 1.085E+02	 1.192E+01	 7.432E+01	 1.656E+00	-1.982E+03	 1.711E+02	 5.583E+03	 1.776E+02	 2.968E+02	 2.844E+00	 2.600E+00
 659.600	 7.394E+00	-1.674E-01	-3.974E-01	 3.737E+01	-4.256E+01	 9.265E+01	 5.446E+02	 7.531E+02	-2.107E-01	 7.770E+02	 5.099E+02	 1.081E+02	 1.194E+01	 7.385E+01	 1.423E+00	-1.982E+03	 1.736E+02	 5.529E+03	 1.661E+02	 2.979E+02	 2.852E+00	 2.600E+00
 659.650	 7.559E+00	-2.772E-01	-3.740E-01	 3.869E+01	-4.194E+01	 9.517E+01	 5.381E+02	 7.565E+02	 2.612E-01	 7.801E+02	 5.032E+02	 1.108E+02	 1.195E+01	 7.330E+01	 1.701E+00	-1.983E+03	 1.688E+02	 5.491E+03	 1.499E+02	 2.991E+02	 2.859E+00	 2.600E+00
 659.700	 7.683E+00	-2.019E-01	-2.934E-01	 3.619E+01	-4.087E+01	 9.761E+01	 5.277E+02	 7.266E+02	-1.608E-02	 7.497E+02	 4.942E+02	 1.092E+02	 1.197E+01	 7.379E+01	 1.633E+00	-1.983E+03	 1.728E+02	 5.491E+03	 1.074E+02	 3.001E+02	 2.865E+00	 2.600E+00
 659.750	 7.500E+00	-5.719E-01	-7.961E-03	 3.400E+01	-3.968E+01	 9.992E+01	 5.157E+02	 6.958E+02	 2.573E-01	 7.185E+02	 4.836E+02	 1.081E+02	 1.198E+01	 7.472E+01	 1.422E+00	-1.983E+03	 1.822E+02	 5.511E+03	 7.439E+01	 3.011E+02	 2.872E+00	 2.600E+00
 659.800	 7.478E+00	-4.298E-01	-1.230E-01	 3.389E+01	-3.872E+01	 1.022E+02	 5.020E+02	 6.820E+02	 2.381E-01	 7.040E+02	 4.705E+02	 1.072E+02	 1.199E+01	 7.475E+01	 9.314E-01	-1.983E+03	 1.983E+02	 5.523E+03	 6.837E+01	 3.021E+02	 2.878E+00	 2.600E+00
 659.850	 7.511E+00	-3.732E-01	 1.730E-01	 3.454E+01	-3.716E+01	 1.045E+02	 4.821E+02	 6.819E+02	 4.168E-01	 7.031E+02	 4.507E+02	 1.083E+02	 1.201E+01	 7.459E+01	 7.555E-01	-1.983E+03	 2.077E+02	 5.538E+03	 8.118E+01	 3.032E+02	 2.885E+00	 2.600E+00
 659.900	 7.678E+00	-4.483E-01	 1.162E-01	 3.435E+01	-3.548E+01	 1.066E+02	 4.591E+02	 6.800E+02	 5.328E-01	 7.001E+02	 4.278E+02	 1.078E+02	 1.202E+01	 7.464E+01	 8.677E-01	-1.983E+03	 2.103E+02	 5.570E+03	 9.315E+01	 3.042E+02	 2.891E+00	 2.600E+00
 659.950	 7.662E+00	-5.343E-01	 5.417E-02	 3.425E+01	-3.375E+01	 1.086E+02	 4.338E+02	 6.774E+02	 8.048E-01	 6.964E+02	 4.027E+02	 1.074E+02	 1.204E+01	 7.571E+01	 1.181E+00	-1.982E+03	 2.102E+02	 5.641E+03	 1.033E+02	 3.052E+02	 2.898E+00	 2.600E+00
 660.000	 7.519E+00	-6.325E-01	 2.214E-01	 3.346E+01	-3.165E+01	 1.105E+02	 4.039E+02	 6.621E+02	 8.700E-01	 6.797E+02	 3.735E+02	 1.062E+02	 1.205E+01	 7.786E+01	 1.323E+00	-1.982E+03	 2.179E+02	 5.745E+03	 1.050E+02	 3.060E+02	 2.903E+00	 2.600E+00
