
This summary file was generated by TurbSim (v1.06.00, 21-Sep-2012) on 14-Jul-2016 at 15:15:39.


Runtime Options:

   2318573  Random seed #1
    RANLUX  Type of random number generator
         F  Output binary HH turbulence parameters?
         F  Output formatted turbulence parameters?
         F  Output AeroDyn HH files?
         F  Output AeroDyn FF files?
         T  Output BLADED FF files?
         F  Output tower data?
         F  Output formatted FF files?
         F  Output coherent turbulence time step file?
         T  Clockwise rotation when looking downwind?
 0 -  NONE  IEC turbulence models scaled to exact specified standard deviation


Turbine/Model Specifications:

        11  Vertical grid-point matrix dimension
        11  Horizontal grid-point matrix dimension
     0.010  Time step [seconds]
   630.000  Analysis time [seconds]
   630.000  Usable output time [seconds]
   100.000  Hub height [m]
   150.000  Grid height [m]
   110.000  Grid width [m]
     0.000  Vertical flow angle [degrees]
     0.000  Horizontal flow angle [degrees]


Meteorological Boundary Conditions:

    IECKAI  IEC Kaimal spectral model
         1  IEC standard: IEC 61400-1 Ed. 3: 2005
         B  IEC turbulence characteristic
       NTM  IEC Normal Turbulence Model
       N/A  IEC Extreme Turbulence Model (ETM) "c" parameter [m/s]
       PL   Wind profile type
    80.000  Reference height [m]
    10.000  Reference wind speed [m/s]
       N/A  Jet height [m]
     0.110  Power law exponent
     0.030  Surface roughness length [m]


You have requested that the following file(s) be generated:

   TurbSim_ws_10.wnd (AeroDyn/BLADED full-field wnd file)


Turbulence Simulation Scaling Parameter Summary:

   Turbulence model used                            =  IEC Kaimal
   Turbulence characteristic                        =  B
   IEC turbulence type                              =  Normal Turbulence Model
   IEC standard                                     =  IEC 61400-1 Ed. 3: 2005
   Mean wind speed at hub height                    =   10.248 m/s
   Expected value of turbulence intensity at 15 m/s =   14.000%
   Characteristic value of standard deviation       =    1.860 m/s
   Turbulence scale                                 =   42.000 m
   u-component integral scale                       =  340.200 m
   Coherency scale                                  =  340.200 m
   Characteristic value of hub turbulence intensity =   18.150%
   Gradient Richardson number                       =    0.000

   Wind profile type                                =  Power law
   Power law exponent                               =    0.110
   Mean shear across rotor disk                     =    0.012 (m/s)/m
   Assumed rotor diameter                           =  110.000 m
   Surface roughness length                         =    0.030 m

   Number of time steps in the FFT                  =    64152
   Number of time steps output                      =    64074


Mean Flow Angles:

   Vertical   =   0.0 degrees
   Horizontal =   0.0 degrees

Mean Wind Speed Profile:

   Height    Wind Speed   Horizontal Angle  U-comp (X)   V-comp (Y)   W-comp (Z)
     (m)        (m/s)         (degrees)       (m/s)        (m/s)        (m/s)   
   ------    ----------   ----------------  ----------   ----------   ----------
    155.0       10.75            0.00         10.75         0.00         0.00
    140.0       10.63            0.00         10.63         0.00         0.00
    125.0       10.50            0.00         10.50         0.00         0.00
    110.0       10.36            0.00         10.36         0.00         0.00
    100.0       10.25            0.00         10.25         0.00         0.00
     95.0       10.19            0.00         10.19         0.00         0.00
     80.0       10.00            0.00         10.00         0.00         0.00
     65.0        9.77            0.00          9.77         0.00         0.00
     50.0        9.50            0.00          9.50         0.00         0.00
     35.0        9.13            0.00          9.13         0.00         0.00
     20.0        8.59            0.00          8.59         0.00         0.00
      5.0        7.37            0.00          7.37         0.00         0.00


Harvested Random Seeds after Generation of the Random Numbers:

    109082457 K1
            0 K2


Hub-Height Simulated Turbulence Statistical Summary:

   Type of Wind        Min (m/s)   Mean (m/s)    Max (m/s)  Sigma (m/s)       TI (%)
   ----------------    ---------   ----------    ---------  -----------       ------
   Longitudinal (u)         5.15        10.25        15.32        1.917       18.709
   Lateral (v)             -4.95         0.00         6.54        1.460       14.241
   Vertical (w)            -3.90         0.00         3.41        0.921        8.984
   U component              5.15        10.25        15.32        1.917       18.709
   V component             -4.95         0.00         6.54        1.460       14.241
   W component             -3.90         0.00         3.41        0.921        8.984
   Horizontal (U&V)         5.18        10.35        15.33        1.907       18.414
   Total                    5.19        10.40        15.38        1.897       18.244

                       Min Reynolds     Mean Reynolds    Max Reynolds    Correlation
   Product             Stress (m/s)^2   Stress (m/s)^2   Stress (m/s)^2  Coefficient
   ----------------    --------------   --------------   --------------  -----------
   u'w'                    -11.029             0.118            12.103         0.067
   u'v'                    -17.190            -0.341            14.428        -0.122
   v'w'                    -14.477            -0.047             9.191        -0.035


   Friction Velocity (Ustar)  =      0.344 m/s
   Maximum Instantaneous TKE  =     21.977 (m/s)^2
   Maximum Instantaneous CTKE =      9.073 (m/s)^2


Grid Point Variance Summary:

   Y-coord  -55.00  -44.00  -33.00  -22.00  -11.00    0.00   11.00   22.00   33.00   44.00   55.00

   Height   Standard deviation at grid points for the u component:
   155.00    1.807   1.832   2.069   2.247   2.109   2.315   2.200   2.051   2.055   2.042   2.175
   140.00    1.942   1.758   1.792   2.022   2.030   2.132   2.130   2.247   2.044   2.244   2.293
   125.00    1.924   1.941   1.924   2.057   1.975   2.049   2.073   2.184   2.144   2.129   2.020
   110.00    2.036   2.023   1.884   1.802   1.852   2.029   2.018   2.198   2.057   2.058   1.937
    95.00    1.961   1.881   1.693   1.768   1.913   1.912   1.975   2.030   2.032   1.862   1.750
    80.00    1.734   1.822   1.802   1.801   1.760   1.911   2.036   2.088   2.069   2.001   1.959
    65.00    1.591   1.636   1.729   1.725   1.738   1.786   1.957   2.028   2.117   2.008   2.270
    50.00    1.828   1.881   1.837   1.840   1.791   1.900   1.840   1.952   2.068   2.149   2.128
    35.00    1.867   1.856   1.761   1.728   1.733   1.859   1.925   2.195   2.238   2.097   2.086
    20.00    1.774   1.845   1.797   1.623   1.530   1.744   1.733   2.082   2.137   2.025   2.020
     5.00    1.768   1.772   1.806   1.589   1.633   1.647   1.778   1.997   1.965   1.876   1.890

   Height   Standard deviation at grid points for the v component:
   155.00    1.460   1.460   1.460   1.460   1.460   1.460   1.460   1.460   1.460   1.460   1.460
   140.00    1.460   1.460   1.460   1.460   1.460   1.460   1.460   1.460   1.460   1.460   1.460
   125.00    1.460   1.460   1.460   1.460   1.460   1.460   1.460   1.460   1.460   1.460   1.460
   110.00    1.460   1.460   1.460   1.460   1.460   1.460   1.460   1.460   1.460   1.460   1.460
    95.00    1.460   1.460   1.460   1.460   1.460   1.460   1.460   1.460   1.460   1.460   1.460
    80.00    1.460   1.460   1.460   1.460   1.460   1.460   1.460   1.460   1.460   1.460   1.460
    65.00    1.460   1.460   1.460   1.460   1.460   1.460   1.460   1.460   1.460   1.460   1.460
    50.00    1.460   1.460   1.460   1.460   1.460   1.460   1.460   1.460   1.460   1.460   1.460
    35.00    1.460   1.460   1.460   1.460   1.460   1.460   1.460   1.460   1.460   1.460   1.460
    20.00    1.460   1.460   1.460   1.460   1.460   1.460   1.460   1.460   1.460   1.460   1.460
     5.00    1.460   1.460   1.460   1.460   1.460   1.460   1.460   1.460   1.460   1.460   1.460

   Height   Standard deviation at grid points for the w component:
   155.00    0.921   0.921   0.921   0.921   0.921   0.921   0.921   0.921   0.921   0.921   0.921
   140.00    0.921   0.921   0.921   0.921   0.921   0.921   0.921   0.921   0.921   0.921   0.921
   125.00    0.921   0.921   0.921   0.921   0.921   0.921   0.921   0.921   0.921   0.921   0.921
   110.00    0.921   0.921   0.921   0.921   0.921   0.921   0.921   0.921   0.921   0.921   0.921
    95.00    0.921   0.921   0.921   0.921   0.921   0.921   0.921   0.921   0.921   0.921   0.921
    80.00    0.921   0.921   0.921   0.921   0.921   0.921   0.921   0.921   0.921   0.921   0.921
    65.00    0.921   0.921   0.921   0.921   0.921   0.921   0.921   0.921   0.921   0.921   0.921
    50.00    0.921   0.921   0.921   0.921   0.921   0.921   0.921   0.921   0.921   0.921   0.921
    35.00    0.921   0.921   0.921   0.921   0.921   0.921   0.921   0.921   0.921   0.921   0.921
    20.00    0.921   0.921   0.921   0.921   0.921   0.921   0.921   0.921   0.921   0.921   0.921
     5.00    0.921   0.921   0.921   0.921   0.921   0.921   0.921   0.921   0.921   0.921   0.921

   Mean standard deviation across all grid points:
      u component:    1.940 m/s
      v component:    1.460 m/s
      w component:    0.921 m/s


U-component (X) statistics from the interpolated hub point:

   Mean =  10.2461 m/s
   TI   =  17.6443 %


Normalizing Parameters for Binary Data (approximate statistics):

   UBar  =  10.2485 m/s
   TI(u) =  18.7090 %
   TI(v) =  14.2414 %
   TI(w) =   8.9844 %

   Height Offset =  20.0000 m
   Grid Base     =   5.0000 m

Nyquist frequency of turbulent wind field =        50.000 Hz


Processing complete.  8.2812 CPU seconds used.
