
This summary file was generated by TurbSim (v1.06.00, 21-Sep-2012) on 14-Jul-2016 at 18:11:49.


Runtime Options:

   2318573  Random seed #1
    RANLUX  Type of random number generator
         F  Output binary HH turbulence parameters?
         F  Output formatted turbulence parameters?
         F  Output AeroDyn HH files?
         F  Output AeroDyn FF files?
         T  Output BLADED FF files?
         F  Output tower data?
         F  Output formatted FF files?
         F  Output coherent turbulence time step file?
         T  Clockwise rotation when looking downwind?
 0 -  NONE  IEC turbulence models scaled to exact specified standard deviation


Turbine/Model Specifications:

        11  Vertical grid-point matrix dimension
        11  Horizontal grid-point matrix dimension
     0.010  Time step [seconds]
   630.000  Analysis time [seconds]
   630.000  Usable output time [seconds]
   100.000  Hub height [m]
   150.000  Grid height [m]
   110.000  Grid width [m]
     0.000  Vertical flow angle [degrees]
     0.000  Horizontal flow angle [degrees]


Meteorological Boundary Conditions:

    IECKAI  IEC Kaimal spectral model
         1  IEC standard: IEC 61400-1 Ed. 3: 2005
         B  IEC turbulence characteristic
       NTM  IEC Normal Turbulence Model
       N/A  IEC Extreme Turbulence Model (ETM) "c" parameter [m/s]
       PL   Wind profile type
    80.000  Reference height [m]
    25.000  Reference wind speed [m/s]
       N/A  Jet height [m]
     0.110  Power law exponent
     0.030  Surface roughness length [m]


You have requested that the following file(s) be generated:

   TurbSim_ws_25.wnd (AeroDyn/BLADED full-field wnd file)


Turbulence Simulation Scaling Parameter Summary:

   Turbulence model used                            =  IEC Kaimal
   Turbulence characteristic                        =  B
   IEC turbulence type                              =  Normal Turbulence Model
   IEC standard                                     =  IEC 61400-1 Ed. 3: 2005
   Mean wind speed at hub height                    =   25.621 m/s
   Expected value of turbulence intensity at 15 m/s =   14.000%
   Characteristic value of standard deviation       =    3.474 m/s
   Turbulence scale                                 =   42.000 m
   u-component integral scale                       =  340.200 m
   Coherency scale                                  =  340.200 m
   Characteristic value of hub turbulence intensity =   13.560%
   Gradient Richardson number                       =    0.000

   Wind profile type                                =  Power law
   Power law exponent                               =    0.110
   Mean shear across rotor disk                     =    0.031 (m/s)/m
   Assumed rotor diameter                           =  110.000 m
   Surface roughness length                         =    0.030 m

   Number of time steps in the FFT                  =    63480
   Number of time steps output                      =    63430


Mean Flow Angles:

   Vertical   =   0.0 degrees
   Horizontal =   0.0 degrees

Mean Wind Speed Profile:

   Height    Wind Speed   Horizontal Angle  U-comp (X)   V-comp (Y)   W-comp (Z)
     (m)        (m/s)         (degrees)       (m/s)        (m/s)        (m/s)   
   ------    ----------   ----------------  ----------   ----------   ----------
    155.0       26.89            0.00         26.89         0.00         0.00
    140.0       26.59            0.00         26.59         0.00         0.00
    125.0       26.26            0.00         26.26         0.00         0.00
    110.0       25.89            0.00         25.89         0.00         0.00
    100.0       25.62            0.00         25.62         0.00         0.00
     95.0       25.48            0.00         25.48         0.00         0.00
     80.0       25.00            0.00         25.00         0.00         0.00
     65.0       24.44            0.00         24.44         0.00         0.00
     50.0       23.74            0.00         23.74         0.00         0.00
     35.0       22.83            0.00         22.83         0.00         0.00
     20.0       21.46            0.00         21.46         0.00         0.00
      5.0       18.43            0.00         18.43         0.00         0.00


Harvested Random Seeds after Generation of the Random Numbers:

    107939805 K1
            0 K2


Hub-Height Simulated Turbulence Statistical Summary:

   Type of Wind        Min (m/s)   Mean (m/s)    Max (m/s)  Sigma (m/s)       TI (%)
   ----------------    ---------   ----------    ---------  -----------       ------
   Longitudinal (u)        13.60        25.62        37.83        3.234       12.624
   Lateral (v)            -12.73         0.00        10.24        2.749       10.728
   Vertical (w)            -6.67         0.00         6.95        1.716        6.696
   U component             13.60        25.62        37.83        3.234       12.624
   V component            -12.73         0.00        10.24        2.749       10.728
   W component             -6.67         0.00         6.95        1.716        6.696
   Horizontal (U&V)        13.85        25.77        37.83        3.223       12.508
   Total                   13.89        25.83        37.85        3.221       12.472

                       Min Reynolds     Mean Reynolds    Max Reynolds    Correlation
   Product             Stress (m/s)^2   Stress (m/s)^2   Stress (m/s)^2  Coefficient
   ----------------    --------------   --------------   --------------  -----------
   u'w'                    -46.447            -0.182            43.742        -0.033
   u'v'                    -70.962            -0.941            69.546        -0.106
   v'w'                    -33.145             0.462            36.185         0.098


   Friction Velocity (Ustar)  =      0.427 m/s
   Maximum Instantaneous TKE  =     81.172 (m/s)^2
   Maximum Instantaneous CTKE =     36.749 (m/s)^2


Grid Point Variance Summary:

   Y-coord  -55.00  -44.00  -33.00  -22.00  -11.00    0.00   11.00   22.00   33.00   44.00   55.00

   Height   Standard deviation at grid points for the u component:
   155.00    3.323   3.282   3.370   3.343   3.240   3.209   3.092   3.191   3.013   3.136   3.138
   140.00    3.246   3.138   3.303   3.082   2.984   3.165   3.117   3.119   3.010   2.957   3.091
   125.00    3.287   3.125   3.086   2.951   3.145   3.195   3.117   3.003   3.163   2.953   3.076
   110.00    3.368   3.334   3.132   3.217   3.187   3.241   3.165   3.133   3.208   3.220   3.310
    95.00    3.306   3.339   3.432   3.349   3.252   3.205   3.163   3.014   3.102   3.338   3.382
    80.00    3.191   3.037   3.270   3.255   3.336   3.072   3.149   3.006   3.237   3.308   3.492
    65.00    3.185   3.118   3.074   3.106   3.248   3.289   3.277   3.182   3.323   3.479   3.519
    50.00    3.605   3.529   3.404   3.541   3.373   3.287   3.300   3.237   3.386   3.608   3.535
    35.00    3.651   3.552   3.794   3.605   3.629   3.665   3.573   3.479   3.600   3.565   3.614
    20.00    3.592   3.690   3.562   3.847   3.759   3.678   3.585   3.639   3.492   3.617   3.501
     5.00    3.396   3.549   3.689   3.698   3.694   3.768   3.576   3.742   3.713   3.521   3.473

   Height   Standard deviation at grid points for the v component:
   155.00    2.749   2.749   2.749   2.749   2.749   2.749   2.749   2.749   2.749   2.749   2.749
   140.00    2.749   2.749   2.749   2.749   2.749   2.749   2.749   2.749   2.749   2.749   2.749
   125.00    2.749   2.749   2.749   2.749   2.749   2.749   2.749   2.749   2.749   2.749   2.749
   110.00    2.749   2.749   2.749   2.749   2.749   2.749   2.749   2.749   2.749   2.749   2.749
    95.00    2.749   2.749   2.749   2.749   2.749   2.749   2.749   2.749   2.749   2.749   2.749
    80.00    2.749   2.749   2.749   2.749   2.749   2.749   2.749   2.749   2.749   2.749   2.749
    65.00    2.749   2.749   2.749   2.749   2.749   2.749   2.749   2.749   2.749   2.749   2.749
    50.00    2.749   2.749   2.749   2.749   2.749   2.749   2.749   2.749   2.749   2.749   2.749
    35.00    2.749   2.749   2.749   2.749   2.749   2.749   2.749   2.749   2.749   2.749   2.749
    20.00    2.749   2.749   2.749   2.749   2.749   2.749   2.749   2.749   2.749   2.749   2.749
     5.00    2.749   2.749   2.749   2.749   2.749   2.749   2.749   2.749   2.749   2.749   2.749

   Height   Standard deviation at grid points for the w component:
   155.00    1.716   1.716   1.716   1.716   1.716   1.716   1.716   1.716   1.716   1.716   1.716
   140.00    1.716   1.716   1.716   1.716   1.716   1.716   1.716   1.716   1.716   1.716   1.716
   125.00    1.716   1.716   1.716   1.716   1.716   1.716   1.716   1.716   1.716   1.716   1.716
   110.00    1.716   1.716   1.716   1.716   1.716   1.716   1.716   1.716   1.716   1.716   1.716
    95.00    1.716   1.716   1.716   1.716   1.716   1.716   1.716   1.716   1.716   1.716   1.716
    80.00    1.716   1.716   1.716   1.716   1.716   1.716   1.716   1.716   1.716   1.716   1.716
    65.00    1.716   1.716   1.716   1.716   1.716   1.716   1.716   1.716   1.716   1.716   1.716
    50.00    1.716   1.716   1.716   1.716   1.716   1.716   1.716   1.716   1.716   1.716   1.716
    35.00    1.716   1.716   1.716   1.716   1.716   1.716   1.716   1.716   1.716   1.716   1.716
    20.00    1.716   1.716   1.716   1.716   1.716   1.716   1.716   1.716   1.716   1.716   1.716
     5.00    1.716   1.716   1.716   1.716   1.716   1.716   1.716   1.716   1.716   1.716   1.716

   Mean standard deviation across all grid points:
      u component:    3.335 m/s
      v component:    2.749 m/s
      w component:    1.716 m/s


U-component (X) statistics from the interpolated hub point:

   Mean =  25.6151 m/s
   TI   =  11.4853 %


Normalizing Parameters for Binary Data (approximate statistics):

   UBar  =  25.6212 m/s
   TI(u) =  12.6239 %
   TI(v) =  10.7277 %
   TI(w) =   6.6963 %

   Height Offset =  20.0000 m
   Grid Base     =   5.0000 m

Nyquist frequency of turbulent wind field =        50.000 Hz


Processing complete.  7.0938 CPU seconds used.
