
This summary file was generated by TurbSim (v1.06.00, 21-Sep-2012) on 14-Jul-2016 at 15:15:47.


Runtime Options:

   2318573  Random seed #1
    RANLUX  Type of random number generator
         F  Output binary HH turbulence parameters?
         F  Output formatted turbulence parameters?
         F  Output AeroDyn HH files?
         F  Output AeroDyn FF files?
         T  Output BLADED FF files?
         F  Output tower data?
         F  Output formatted FF files?
         F  Output coherent turbulence time step file?
         T  Clockwise rotation when looking downwind?
 0 -  NONE  IEC turbulence models scaled to exact specified standard deviation


Turbine/Model Specifications:

        11  Vertical grid-point matrix dimension
        11  Horizontal grid-point matrix dimension
     0.010  Time step [seconds]
   630.000  Analysis time [seconds]
   630.000  Usable output time [seconds]
   100.000  Hub height [m]
   150.000  Grid height [m]
   110.000  Grid width [m]
     0.000  Vertical flow angle [degrees]
     0.000  Horizontal flow angle [degrees]


Meteorological Boundary Conditions:

    IECKAI  IEC Kaimal spectral model
         1  IEC standard: IEC 61400-1 Ed. 3: 2005
         B  IEC turbulence characteristic
       NTM  IEC Normal Turbulence Model
       N/A  IEC Extreme Turbulence Model (ETM) "c" parameter [m/s]
       PL   Wind profile type
    80.000  Reference height [m]
    15.000  Reference wind speed [m/s]
       N/A  Jet height [m]
     0.110  Power law exponent
     0.030  Surface roughness length [m]


You have requested that the following file(s) be generated:

   TurbSim_ws_15.wnd (AeroDyn/BLADED full-field wnd file)


Turbulence Simulation Scaling Parameter Summary:

   Turbulence model used                            =  IEC Kaimal
   Turbulence characteristic                        =  B
   IEC turbulence type                              =  Normal Turbulence Model
   IEC standard                                     =  IEC 61400-1 Ed. 3: 2005
   Mean wind speed at hub height                    =   15.373 m/s
   Expected value of turbulence intensity at 15 m/s =   14.000%
   Characteristic value of standard deviation       =    2.398 m/s
   Turbulence scale                                 =   42.000 m
   u-component integral scale                       =  340.200 m
   Coherency scale                                  =  340.200 m
   Characteristic value of hub turbulence intensity =   15.600%
   Gradient Richardson number                       =    0.000

   Wind profile type                                =  Power law
   Power law exponent                               =    0.110
   Mean shear across rotor disk                     =    0.019 (m/s)/m
   Assumed rotor diameter                           =  110.000 m
   Surface roughness length                         =    0.030 m

   Number of time steps in the FFT                  =    63756
   Number of time steps output                      =    63716


Mean Flow Angles:

   Vertical   =   0.0 degrees
   Horizontal =   0.0 degrees

Mean Wind Speed Profile:

   Height    Wind Speed   Horizontal Angle  U-comp (X)   V-comp (Y)   W-comp (Z)
     (m)        (m/s)         (degrees)       (m/s)        (m/s)        (m/s)   
   ------    ----------   ----------------  ----------   ----------   ----------
    155.0       16.13            0.00         16.13         0.00         0.00
    140.0       15.95            0.00         15.95         0.00         0.00
    125.0       15.75            0.00         15.75         0.00         0.00
    110.0       15.53            0.00         15.53         0.00         0.00
    100.0       15.37            0.00         15.37         0.00         0.00
     95.0       15.29            0.00         15.29         0.00         0.00
     80.0       15.00            0.00         15.00         0.00         0.00
     65.0       14.66            0.00         14.66         0.00         0.00
     50.0       14.24            0.00         14.24         0.00         0.00
     35.0       13.70            0.00         13.70         0.00         0.00
     20.0       12.88            0.00         12.88         0.00         0.00
      5.0       11.06            0.00         11.06         0.00         0.00


Harvested Random Seeds after Generation of the Random Numbers:

    108409009 K1
            0 K2


Hub-Height Simulated Turbulence Statistical Summary:

   Type of Wind        Min (m/s)   Mean (m/s)    Max (m/s)  Sigma (m/s)       TI (%)
   ----------------    ---------   ----------    ---------  -----------       ------
   Longitudinal (u)         7.91        15.37        22.67        2.112       13.739
   Lateral (v)             -7.19         0.00         6.85        1.891       12.300
   Vertical (w)            -4.51         0.00         4.42        1.187        7.719
   U component              7.91        15.37        22.67        2.112       13.739
   V component             -7.19         0.00         6.85        1.891       12.300
   W component             -4.51         0.00         4.42        1.187        7.719
   Horizontal (U&V)         7.97        15.49        22.68        2.107       13.602
   Total                    8.06        15.54        22.74        2.099       13.511

                       Min Reynolds     Mean Reynolds    Max Reynolds    Correlation
   Product             Stress (m/s)^2   Stress (m/s)^2   Stress (m/s)^2  Coefficient
   ----------------    --------------   --------------   --------------  -----------
   u'w'                    -18.231             0.221            20.090         0.088
   u'v'                    -20.632             0.021            23.290         0.005
   v'w'                    -16.791             0.155            21.992         0.069


   Friction Velocity (Ustar)  =      0.470 m/s
   Maximum Instantaneous TKE  =     31.326 (m/s)^2
   Maximum Instantaneous CTKE =     13.019 (m/s)^2


Grid Point Variance Summary:

   Y-coord  -55.00  -44.00  -33.00  -22.00  -11.00    0.00   11.00   22.00   33.00   44.00   55.00

   Height   Standard deviation at grid points for the u component:
   155.00    2.314   2.381   2.461   2.341   2.303   2.469   2.318   2.025   1.923   2.208   2.165
   140.00    2.430   2.398   2.504   2.280   2.395   2.453   2.285   2.270   2.319   2.262   2.127
   125.00    2.458   2.492   2.378   2.244   2.366   2.266   2.296   2.189   2.164   2.233   2.138
   110.00    2.494   2.376   2.349   2.357   2.457   2.305   2.342   2.185   2.086   2.076   2.106
    95.00    2.388   2.312   2.159   2.285   2.226   2.118   2.307   2.218   2.109   2.028   2.145
    80.00    2.349   2.331   2.216   2.262   2.240   2.201   2.175   2.205   2.160   2.238   2.154
    65.00    2.255   2.146   2.221   2.036   2.195   2.255   2.250   2.362   2.129   2.244   2.333
    50.00    2.041   2.099   2.101   2.055   2.170   2.227   2.304   2.291   2.126   2.032   2.136
    35.00    2.014   2.175   2.222   2.257   2.529   2.391   2.330   2.190   2.224   2.303   2.414
    20.00    2.283   2.251   2.565   2.537   2.540   2.610   2.394   2.424   2.472   2.309   2.250
     5.00    2.315   2.241   2.400   2.505   2.532   2.594   2.551   2.574   2.261   2.322   2.316

   Height   Standard deviation at grid points for the v component:
   155.00    1.891   1.891   1.891   1.891   1.891   1.891   1.891   1.891   1.891   1.891   1.891
   140.00    1.891   1.891   1.891   1.891   1.891   1.891   1.891   1.891   1.891   1.891   1.891
   125.00    1.891   1.891   1.891   1.891   1.891   1.891   1.891   1.891   1.891   1.891   1.891
   110.00    1.891   1.891   1.891   1.891   1.891   1.891   1.891   1.891   1.891   1.891   1.891
    95.00    1.891   1.891   1.891   1.891   1.891   1.891   1.891   1.891   1.891   1.891   1.891
    80.00    1.891   1.891   1.891   1.891   1.891   1.891   1.891   1.891   1.891   1.891   1.891
    65.00    1.891   1.891   1.891   1.891   1.891   1.891   1.891   1.891   1.891   1.891   1.891
    50.00    1.891   1.891   1.891   1.891   1.891   1.891   1.891   1.891   1.891   1.891   1.891
    35.00    1.891   1.891   1.891   1.891   1.891   1.891   1.891   1.891   1.891   1.891   1.891
    20.00    1.891   1.891   1.891   1.891   1.891   1.891   1.891   1.891   1.891   1.891   1.891
     5.00    1.891   1.891   1.891   1.891   1.891   1.891   1.891   1.891   1.891   1.891   1.891

   Height   Standard deviation at grid points for the w component:
   155.00    1.187   1.187   1.187   1.187   1.187   1.187   1.187   1.187   1.187   1.187   1.187
   140.00    1.187   1.187   1.187   1.187   1.187   1.187   1.187   1.187   1.187   1.187   1.187
   125.00    1.187   1.187   1.187   1.187   1.187   1.187   1.187   1.187   1.187   1.187   1.187
   110.00    1.187   1.187   1.187   1.187   1.187   1.187   1.187   1.187   1.187   1.187   1.187
    95.00    1.187   1.187   1.187   1.187   1.187   1.187   1.187   1.187   1.187   1.187   1.187
    80.00    1.187   1.187   1.187   1.187   1.187   1.187   1.187   1.187   1.187   1.187   1.187
    65.00    1.187   1.187   1.187   1.187   1.187   1.187   1.187   1.187   1.187   1.187   1.187
    50.00    1.187   1.187   1.187   1.187   1.187   1.187   1.187   1.187   1.187   1.187   1.187
    35.00    1.187   1.187   1.187   1.187   1.187   1.187   1.187   1.187   1.187   1.187   1.187
    20.00    1.187   1.187   1.187   1.187   1.187   1.187   1.187   1.187   1.187   1.187   1.187
     5.00    1.187   1.187   1.187   1.187   1.187   1.187   1.187   1.187   1.187   1.187   1.187

   Mean standard deviation across all grid points:
      u component:    2.282 m/s
      v component:    1.891 m/s
      w component:    1.187 m/s


U-component (X) statistics from the interpolated hub point:

   Mean =  15.3691 m/s
   TI   =  12.9672 %


Normalizing Parameters for Binary Data (approximate statistics):

   UBar  =  15.3727 m/s
   TI(u) =  13.7387 %
   TI(v) =  12.3003 %
   TI(w) =   7.7189 %

   Height Offset =  20.0000 m
   Grid Base     =   5.0000 m

Nyquist frequency of turbulent wind field =        50.000 Hz


Processing complete.  7.7031 CPU seconds used.
