
This summary file was generated by TurbSim (v1.06.00, 21-Sep-2012) on 14-Jul-2016 at 15:15:31.


Runtime Options:

   2318573  Random seed #1
    RANLUX  Type of random number generator
         F  Output binary HH turbulence parameters?
         F  Output formatted turbulence parameters?
         F  Output AeroDyn HH files?
         F  Output AeroDyn FF files?
         T  Output BLADED FF files?
         F  Output tower data?
         F  Output formatted FF files?
         F  Output coherent turbulence time step file?
         T  Clockwise rotation when looking downwind?
 0 -  NONE  IEC turbulence models scaled to exact specified standard deviation


Turbine/Model Specifications:

        11  Vertical grid-point matrix dimension
        11  Horizontal grid-point matrix dimension
     0.010  Time step [seconds]
   630.000  Analysis time [seconds]
   630.000  Usable output time [seconds]
   100.000  Hub height [m]
   150.000  Grid height [m]
   110.000  Grid width [m]
     0.000  Vertical flow angle [degrees]
     0.000  Horizontal flow angle [degrees]


Meteorological Boundary Conditions:

    IECKAI  IEC Kaimal spectral model
         1  IEC standard: IEC 61400-1 Ed. 3: 2005
         B  IEC turbulence characteristic
       NTM  IEC Normal Turbulence Model
       N/A  IEC Extreme Turbulence Model (ETM) "c" parameter [m/s]
       PL   Wind profile type
    80.000  Reference height [m]
     5.000  Reference wind speed [m/s]
       N/A  Jet height [m]
     0.110  Power law exponent
     0.030  Surface roughness length [m]


You have requested that the following file(s) be generated:

   TurbSim_ws_5.wnd (AeroDyn/BLADED full-field wnd file)


Turbulence Simulation Scaling Parameter Summary:

   Turbulence model used                            =  IEC Kaimal
   Turbulence characteristic                        =  B
   IEC turbulence type                              =  Normal Turbulence Model
   IEC standard                                     =  IEC 61400-1 Ed. 3: 2005
   Mean wind speed at hub height                    =    5.124 m/s
   Expected value of turbulence intensity at 15 m/s =   14.000%
   Characteristic value of standard deviation       =    1.322 m/s
   Turbulence scale                                 =   42.000 m
   u-component integral scale                       =  340.200 m
   Coherency scale                                  =  340.200 m
   Characteristic value of hub turbulence intensity =   25.800%
   Gradient Richardson number                       =    0.000

   Wind profile type                                =  Power law
   Power law exponent                               =    0.110
   Mean shear across rotor disk                     =    0.006 (m/s)/m
   Assumed rotor diameter                           =  110.000 m
   Surface roughness length                         =    0.030 m

   Number of time steps in the FFT                  =    65208
   Number of time steps output                      =    65147


Mean Flow Angles:

   Vertical   =   0.0 degrees
   Horizontal =   0.0 degrees

Mean Wind Speed Profile:

   Height    Wind Speed   Horizontal Angle  U-comp (X)   V-comp (Y)   W-comp (Z)
     (m)        (m/s)         (degrees)       (m/s)        (m/s)        (m/s)   
   ------    ----------   ----------------  ----------   ----------   ----------
    155.0        5.38            0.00          5.38         0.00         0.00
    140.0        5.32            0.00          5.32         0.00         0.00
    125.0        5.25            0.00          5.25         0.00         0.00
    110.0        5.18            0.00          5.18         0.00         0.00
    100.0        5.12            0.00          5.12         0.00         0.00
     95.0        5.10            0.00          5.10         0.00         0.00
     80.0        5.00            0.00          5.00         0.00         0.00
     65.0        4.89            0.00          4.89         0.00         0.00
     50.0        4.75            0.00          4.75         0.00         0.00
     35.0        4.57            0.00          4.57         0.00         0.00
     20.0        4.29            0.00          4.29         0.00         0.00
      5.0        3.69            0.00          3.69         0.00         0.00


Harvested Random Seeds after Generation of the Random Numbers:

    110878053 K1
            0 K2


Hub-Height Simulated Turbulence Statistical Summary:

   Type of Wind        Min (m/s)   Mean (m/s)    Max (m/s)  Sigma (m/s)       TI (%)
   ----------------    ---------   ----------    ---------  -----------       ------
   Longitudinal (u)         2.55         5.12         7.83        0.809       15.794
   Lateral (v)             -3.31         0.00         3.51        1.022       19.938
   Vertical (w)            -2.12         0.00         2.21        0.653       12.747
   U component              2.55         5.12         7.83        0.809       15.794
   V component             -3.31         0.00         3.51        1.022       19.938
   W component             -2.12         0.00         2.21        0.653       12.747
   Horizontal (U&V)         2.75         5.23         7.83        0.807       15.453
   Total                    2.81         5.27         7.83        0.805       15.279

                       Min Reynolds     Mean Reynolds    Max Reynolds    Correlation
   Product             Stress (m/s)^2   Stress (m/s)^2   Stress (m/s)^2  Coefficient
   ----------------    --------------   --------------   --------------  -----------
   u'w'                     -3.892            -0.085             2.297        -0.160
   u'v'                     -5.663             0.180             5.466         0.218
   v'w'                     -4.899            -0.016             4.827        -0.025


   Friction Velocity (Ustar)  =      0.291 m/s
   Maximum Instantaneous TKE  =      6.487 (m/s)^2
   Maximum Instantaneous CTKE =      3.331 (m/s)^2


Grid Point Variance Summary:

   Y-coord  -55.00  -44.00  -33.00  -22.00  -11.00    0.00   11.00   22.00   33.00   44.00   55.00

   Height   Standard deviation at grid points for the u component:
   155.00    1.187   1.142   0.931   0.864   0.890   0.863   0.862   0.958   0.985   0.868   0.940
   140.00    1.116   1.007   0.957   0.879   0.882   0.918   0.837   0.936   0.981   1.012   1.087
   125.00    0.990   0.887   0.845   1.062   1.053   0.961   0.945   0.891   1.075   1.014   1.138
   110.00    0.979   1.002   0.924   0.942   0.989   0.902   0.949   1.004   1.074   1.050   1.140
    95.00    1.071   1.008   0.953   0.929   0.876   0.826   0.891   0.863   1.061   0.987   1.028
    80.00    1.140   1.132   0.996   0.934   0.859   0.964   0.927   0.955   1.085   1.109   1.179
    65.00    1.312   1.172   1.161   0.980   0.983   0.981   1.015   0.980   1.066   1.089   1.034
    50.00    1.508   1.338   1.355   1.155   1.016   0.988   0.923   1.036   1.052   1.111   1.060
    35.00    1.473   1.435   1.398   1.160   1.250   1.025   1.019   1.003   0.988   1.076   1.078
    20.00    1.343   1.242   1.247   1.221   1.142   1.066   1.188   1.068   0.978   1.112   1.080
     5.00    1.203   1.223   1.317   1.293   1.237   1.171   1.187   1.125   1.117   1.114   1.112

   Height   Standard deviation at grid points for the v component:
   155.00    1.022   1.022   1.022   1.022   1.022   1.022   1.022   1.022   1.022   1.022   1.022
   140.00    1.022   1.022   1.022   1.022   1.022   1.022   1.022   1.022   1.022   1.022   1.022
   125.00    1.022   1.022   1.022   1.022   1.022   1.022   1.022   1.022   1.022   1.022   1.022
   110.00    1.022   1.022   1.022   1.022   1.022   1.022   1.022   1.022   1.022   1.022   1.022
    95.00    1.022   1.022   1.022   1.022   1.022   1.022   1.022   1.022   1.022   1.022   1.022
    80.00    1.022   1.022   1.022   1.022   1.022   1.022   1.022   1.022   1.022   1.022   1.022
    65.00    1.022   1.022   1.022   1.022   1.022   1.022   1.022   1.022   1.022   1.022   1.022
    50.00    1.022   1.022   1.022   1.022   1.022   1.022   1.022   1.022   1.022   1.022   1.022
    35.00    1.022   1.022   1.022   1.022   1.022   1.022   1.022   1.022   1.022   1.022   1.022
    20.00    1.022   1.022   1.022   1.022   1.022   1.022   1.022   1.022   1.022   1.022   1.022
     5.00    1.022   1.022   1.022   1.022   1.022   1.022   1.022   1.022   1.022   1.022   1.022

   Height   Standard deviation at grid points for the w component:
   155.00    0.653   0.653   0.653   0.653   0.653   0.653   0.653   0.653   0.653   0.653   0.653
   140.00    0.653   0.653   0.653   0.653   0.653   0.653   0.653   0.653   0.653   0.653   0.653
   125.00    0.653   0.653   0.653   0.653   0.653   0.653   0.653   0.653   0.653   0.653   0.653
   110.00    0.653   0.653   0.653   0.653   0.653   0.653   0.653   0.653   0.653   0.653   0.653
    95.00    0.653   0.653   0.653   0.653   0.653   0.653   0.653   0.653   0.653   0.653   0.653
    80.00    0.653   0.653   0.653   0.653   0.653   0.653   0.653   0.653   0.653   0.653   0.653
    65.00    0.653   0.653   0.653   0.653   0.653   0.653   0.653   0.653   0.653   0.653   0.653
    50.00    0.653   0.653   0.653   0.653   0.653   0.653   0.653   0.653   0.653   0.653   0.653
    35.00    0.653   0.653   0.653   0.653   0.653   0.653   0.653   0.653   0.653   0.653   0.653
    20.00    0.653   0.653   0.653   0.653   0.653   0.653   0.653   0.653   0.653   0.653   0.653
     5.00    0.653   0.653   0.653   0.653   0.653   0.653   0.653   0.653   0.653   0.653   0.653

   Mean standard deviation across all grid points:
      u component:    1.055 m/s
      v component:    1.022 m/s
      w component:    0.653 m/s


U-component (X) statistics from the interpolated hub point:

   Mean =   5.1230 m/s
   TI   =  13.6592 %


Normalizing Parameters for Binary Data (approximate statistics):

   UBar  =   5.1242 m/s
   TI(u) =  15.7944 %
   TI(v) =  19.9376 %
   TI(w) =  12.7468 %

   Height Offset =  20.0000 m
   Grid Base     =   5.0000 m

Nyquist frequency of turbulent wind field =        50.000 Hz


Processing complete.  7.3125 CPU seconds used.
