
This summary file was generated by TurbSim (v1.06.00, 21-Sep-2012) on 14-Jul-2016 at 14:05:08.


Runtime Options:

   2318573  Random seed #1
    RANLUX  Type of random number generator
         F  Output binary HH turbulence parameters?
         F  Output formatted turbulence parameters?
         F  Output AeroDyn HH files?
         F  Output AeroDyn FF files?
         T  Output BLADED FF files?
         F  Output tower data?
         F  Output formatted FF files?
         F  Output coherent turbulence time step file?
         T  Clockwise rotation when looking downwind?
 0 -  NONE  IEC turbulence models scaled to exact specified standard deviation


Turbine/Model Specifications:

        11  Vertical grid-point matrix dimension
        11  Horizontal grid-point matrix dimension
     0.010  Time step [seconds]
   660.000  Analysis time [seconds]
   660.000  Usable output time [seconds]
    80.000  Hub height [m]
   110.000  Grid height [m]
   110.000  Grid width [m]
     0.000  Vertical flow angle [degrees]
     0.000  Horizontal flow angle [degrees]


Meteorological Boundary Conditions:

    IECKAI  IEC Kaimal spectral model
         1  IEC standard: IEC 61400-1 Ed. 3: 2005
         B  IEC turbulence characteristic
       NTM  IEC Normal Turbulence Model
       N/A  IEC Extreme Turbulence Model (ETM) "c" parameter [m/s]
       PL   Wind profile type
    80.000  Reference height [m]
     5.000  Reference wind speed [m/s]
       N/A  Jet height [m]
     0.110  Power law exponent
     0.030  Surface roughness length [m]


You have requested that the following file(s) be generated:

   TurbSim_test_free_05.wnd (AeroDyn/BLADED full-field wnd file)


Turbulence Simulation Scaling Parameter Summary:

   Turbulence model used                            =  IEC Kaimal
   Turbulence characteristic                        =  B
   IEC turbulence type                              =  Normal Turbulence Model
   IEC standard                                     =  IEC 61400-1 Ed. 3: 2005
   Mean wind speed at hub height                    =    5.000 m/s
   Expected value of turbulence intensity at 15 m/s =   14.000%
   Characteristic value of standard deviation       =    1.309 m/s
   Turbulence scale                                 =   42.000 m
   u-component integral scale                       =  340.200 m
   Coherency scale                                  =  340.200 m
   Characteristic value of hub turbulence intensity =   26.180%
   Gradient Richardson number                       =    0.000

   Wind profile type                                =  Power law
   Power law exponent                               =    0.110
   Mean shear across rotor disk                     =    0.008 (m/s)/m
   Assumed rotor diameter                           =  110.000 m
   Surface roughness length                         =    0.030 m

   Number of time steps in the FFT                  =    68400
   Number of time steps output                      =    68200


Mean Flow Angles:

   Vertical   =   0.0 degrees
   Horizontal =   0.0 degrees

Mean Wind Speed Profile:

   Height    Wind Speed   Horizontal Angle  U-comp (X)   V-comp (Y)   W-comp (Z)
     (m)        (m/s)         (degrees)       (m/s)        (m/s)        (m/s)   
   ------    ----------   ----------------  ----------   ----------   ----------
    135.0        5.30            0.00          5.30         0.00         0.00
    124.0        5.25            0.00          5.25         0.00         0.00
    113.0        5.19            0.00          5.19         0.00         0.00
    102.0        5.14            0.00          5.14         0.00         0.00
     91.0        5.07            0.00          5.07         0.00         0.00
     80.0        5.00            0.00          5.00         0.00         0.00
     69.0        4.92            0.00          4.92         0.00         0.00
     58.0        4.83            0.00          4.83         0.00         0.00
     47.0        4.72            0.00          4.72         0.00         0.00
     36.0        4.58            0.00          4.58         0.00         0.00
     25.0        4.40            0.00          4.40         0.00         0.00


Harvested Random Seeds after Generation of the Random Numbers:

    115352325 K1
            0 K2
