
This summary file was generated by TurbSim (v1.06.00, 21-Sep-2012) on 04-Oct-2016 at 11:37:22.


Runtime Options:

   2318573  Random seed #1
    RANLUX  Type of random number generator
         F  Output binary HH turbulence parameters?
         F  Output formatted turbulence parameters?
         F  Output AeroDyn HH files?
         F  Output AeroDyn FF files?
         T  Output BLADED FF files?
         F  Output tower data?
         F  Output formatted FF files?
         F  Output coherent turbulence time step file?
         T  Clockwise rotation when looking downwind?
 0 -  NONE  IEC turbulence models scaled to exact specified standard deviation


Turbine/Model Specifications:

        11  Vertical grid-point matrix dimension
        11  Horizontal grid-point matrix dimension
     0.010  Time step [seconds]
   630.000  Analysis time [seconds]
   630.000  Usable output time [seconds]
   100.000  Hub height [m]
   150.000  Grid height [m]
   110.000  Grid width [m]
     0.000  Vertical flow angle [degrees]
     0.000  Horizontal flow angle [degrees]


Meteorological Boundary Conditions:

    IECKAI  IEC Kaimal spectral model
         1  IEC standard: IEC 61400-1 Ed. 3: 2005
    15.940  Percent turbulence intensity, IEC 61400-1 Ed. 3: 2005
       NTM  IEC Normal Turbulence Model
       N/A  IEC Extreme Turbulence Model (ETM) "c" parameter [m/s]
       PL   Wind profile type
    80.000  Reference height [m]
    15.000  Reference wind speed [m/s]
       N/A  Jet height [m]
     0.110  Power law exponent
     0.030  Surface roughness length [m]


You have requested that the following file(s) be generated:

   TurbSim_ws_wake15.wnd (AeroDyn/BLADED full-field wnd file)


Turbulence Simulation Scaling Parameter Summary:

   Turbulence model used                            =  IEC Kaimal
   Turbulence characteristic                        =  User-specified
   IEC standard                                     =  IEC 61400-1 Ed. 3: 2005
   Mean wind speed at hub height                    =   15.373 m/s
   Characteristic value of standard deviation       =    2.450 m/s
   Turbulence scale                                 =   42.000 m
   u-component integral scale                       =  340.200 m
   Coherency scale                                  =  340.200 m
   Characteristic value of hub turbulence intensity =   15.940%
   Gradient Richardson number                       =    0.000

   Wind profile type                                =  Power law
   Power law exponent                               =    0.110
   Mean shear across rotor disk                     =    0.019 (m/s)/m
   Assumed rotor diameter                           =  110.000 m
   Surface roughness length                         =    0.030 m

   Number of time steps in the FFT                  =    63756
   Number of time steps output                      =    63716


Mean Flow Angles:

   Vertical   =   0.0 degrees
   Horizontal =   0.0 degrees

Mean Wind Speed Profile:

   Height    Wind Speed   Horizontal Angle  U-comp (X)   V-comp (Y)   W-comp (Z)
     (m)        (m/s)         (degrees)       (m/s)        (m/s)        (m/s)   
   ------    ----------   ----------------  ----------   ----------   ----------
    155.0       16.13            0.00         16.13         0.00         0.00
    140.0       15.95            0.00         15.95         0.00         0.00
    125.0       15.75            0.00         15.75         0.00         0.00
    110.0       15.53            0.00         15.53         0.00         0.00
    100.0       15.37            0.00         15.37         0.00         0.00
     95.0       15.29            0.00         15.29         0.00         0.00
     80.0       15.00            0.00         15.00         0.00         0.00
     65.0       14.66            0.00         14.66         0.00         0.00
     50.0       14.24            0.00         14.24         0.00         0.00
     35.0       13.70            0.00         13.70         0.00         0.00
     20.0       12.88            0.00         12.88         0.00         0.00
      5.0       11.06            0.00         11.06         0.00         0.00


Harvested Random Seeds after Generation of the Random Numbers:

    108409009 K1
            0 K2


Hub-Height Simulated Turbulence Statistical Summary:

   Type of Wind        Min (m/s)   Mean (m/s)    Max (m/s)  Sigma (m/s)       TI (%)
   ----------------    ---------   ----------    ---------  -----------       ------
   Longitudinal (u)         7.75        15.37        22.82        2.158       14.038
   Lateral (v)             -7.34         0.00         7.00        1.932       12.568
   Vertical (w)            -4.60         0.00         4.51        1.212        7.887
   U component              7.75        15.37        22.82        2.158       14.038
   V component             -7.34         0.00         7.00        1.932       12.568
   W component             -4.60         0.00         4.51        1.212        7.887
   Horizontal (U&V)         7.81        15.49        22.84        2.152       13.892
   Total                    7.90        15.54        22.91        2.144       13.795

                       Min Reynolds     Mean Reynolds    Max Reynolds    Correlation
   Product             Stress (m/s)^2   Stress (m/s)^2   Stress (m/s)^2  Coefficient
   ----------------    --------------   --------------   --------------  -----------
   u'w'                    -19.035             0.230            20.975         0.088
   u'v'                    -21.542             0.022            24.317         0.005
   v'w'                    -17.531             0.162            22.961         0.069


   Friction Velocity (Ustar)  =      0.480 m/s
   Maximum Instantaneous TKE  =     32.707 (m/s)^2
   Maximum Instantaneous CTKE =     13.593 (m/s)^2


Grid Point Variance Summary:

   Y-coord  -55.00  -44.00  -33.00  -22.00  -11.00    0.00   11.00   22.00   33.00   44.00   55.00

   Height   Standard deviation at grid points for the u component:
   155.00    2.365   2.433   2.515   2.392   2.353   2.523   2.369   2.069   1.965   2.256   2.212
   140.00    2.483   2.450   2.559   2.330   2.448   2.506   2.335   2.320   2.369   2.311   2.173
   125.00    2.512   2.546   2.430   2.293   2.418   2.316   2.346   2.237   2.211   2.282   2.184
   110.00    2.549   2.427   2.400   2.408   2.510   2.355   2.393   2.232   2.131   2.122   2.152
    95.00    2.440   2.363   2.206   2.335   2.274   2.164   2.358   2.267   2.155   2.072   2.192
    80.00    2.400   2.382   2.264   2.311   2.289   2.249   2.222   2.253   2.207   2.287   2.201
    65.00    2.305   2.193   2.269   2.081   2.243   2.304   2.299   2.414   2.175   2.293   2.384
    50.00    2.085   2.145   2.147   2.100   2.218   2.276   2.355   2.341   2.172   2.076   2.183
    35.00    2.058   2.223   2.270   2.306   2.584   2.443   2.381   2.238   2.272   2.353   2.467
    20.00    2.333   2.301   2.621   2.592   2.595   2.667   2.447   2.477   2.526   2.359   2.299
     5.00    2.365   2.290   2.452   2.559   2.587   2.651   2.607   2.631   2.310   2.373   2.366

   Height   Standard deviation at grid points for the v component:
   155.00    1.932   1.932   1.932   1.932   1.932   1.932   1.932   1.932   1.932   1.932   1.932
   140.00    1.932   1.932   1.932   1.932   1.932   1.932   1.932   1.932   1.932   1.932   1.932
   125.00    1.932   1.932   1.932   1.932   1.932   1.932   1.932   1.932   1.932   1.932   1.932
   110.00    1.932   1.932   1.932   1.932   1.932   1.932   1.932   1.932   1.932   1.932   1.932
    95.00    1.932   1.932   1.932   1.932   1.932   1.932   1.932   1.932   1.932   1.932   1.932
    80.00    1.932   1.932   1.932   1.932   1.932   1.932   1.932   1.932   1.932   1.932   1.932
    65.00    1.932   1.932   1.932   1.932   1.932   1.932   1.932   1.932   1.932   1.932   1.932
    50.00    1.932   1.932   1.932   1.932   1.932   1.932   1.932   1.932   1.932   1.932   1.932
    35.00    1.932   1.932   1.932   1.932   1.932   1.932   1.932   1.932   1.932   1.932   1.932
    20.00    1.932   1.932   1.932   1.932   1.932   1.932   1.932   1.932   1.932   1.932   1.932
     5.00    1.932   1.932   1.932   1.932   1.932   1.932   1.932   1.932   1.932   1.932   1.932

   Height   Standard deviation at grid points for the w component:
   155.00    1.212   1.212   1.212   1.212   1.212   1.212   1.212   1.212   1.212   1.212   1.212
   140.00    1.212   1.212   1.212   1.212   1.212   1.212   1.212   1.212   1.212   1.212   1.212
   125.00    1.212   1.212   1.212   1.212   1.212   1.212   1.212   1.212   1.212   1.212   1.212
   110.00    1.212   1.212   1.212   1.212   1.212   1.212   1.212   1.212   1.212   1.212   1.212
    95.00    1.212   1.212   1.212   1.212   1.212   1.212   1.212   1.212   1.212   1.212   1.212
    80.00    1.212   1.212   1.212   1.212   1.212   1.212   1.212   1.212   1.212   1.212   1.212
    65.00    1.212   1.212   1.212   1.212   1.212   1.212   1.212   1.212   1.212   1.212   1.212
    50.00    1.212   1.212   1.212   1.212   1.212   1.212   1.212   1.212   1.212   1.212   1.212
    35.00    1.212   1.212   1.212   1.212   1.212   1.212   1.212   1.212   1.212   1.212   1.212
    20.00    1.212   1.212   1.212   1.212   1.212   1.212   1.212   1.212   1.212   1.212   1.212
     5.00    1.212   1.212   1.212   1.212   1.212   1.212   1.212   1.212   1.212   1.212   1.212

   Mean standard deviation across all grid points:
      u component:    2.332 m/s
      v component:    1.932 m/s
      w component:    1.212 m/s


U-component (X) statistics from the interpolated hub point:

   Mean =  15.3691 m/s
   TI   =  13.2498 %


Normalizing Parameters for Binary Data (approximate statistics):

   UBar  =  15.3727 m/s
   TI(u) =  14.0382 %
   TI(v) =  12.5684 %
   TI(w) =   7.8872 %

   Height Offset =  20.0000 m
   Grid Base     =   5.0000 m

Nyquist frequency of turbulent wind field =        50.000 Hz


Processing complete.  8.0625 CPU seconds used.
