
This summary file was generated by TurbSim (v1.06.00, 21-Sep-2012) on 14-Jul-2016 at 15:56:20.


Runtime Options:

   2318573  Random seed #1
    RANLUX  Type of random number generator
         F  Output binary HH turbulence parameters?
         F  Output formatted turbulence parameters?
         F  Output AeroDyn HH files?
         F  Output AeroDyn FF files?
         T  Output BLADED FF files?
         F  Output tower data?
         F  Output formatted FF files?
         F  Output coherent turbulence time step file?
         T  Clockwise rotation when looking downwind?
 0 -  NONE  IEC turbulence models scaled to exact specified standard deviation


Turbine/Model Specifications:

        11  Vertical grid-point matrix dimension
        11  Horizontal grid-point matrix dimension
     0.010  Time step [seconds]
   630.000  Analysis time [seconds]
   630.000  Usable output time [seconds]
   100.000  Hub height [m]
   130.000  Grid height [m]
   130.000  Grid width [m]
     0.000  Vertical flow angle [degrees]
     0.000  Horizontal flow angle [degrees]


Meteorological Boundary Conditions:

    IECKAI  IEC Kaimal spectral model
         1  IEC standard: IEC 61400-1 Ed. 3: 2005
    18.670  Percent turbulence intensity, IEC 61400-1 Ed. 3: 2005
       NTM  IEC Normal Turbulence Model
       N/A  IEC Extreme Turbulence Model (ETM) "c" parameter [m/s]
       PL   Wind profile type
    80.000  Reference height [m]
    10.000  Reference wind speed [m/s]
       N/A  Jet height [m]
     0.110  Power law exponent
     0.030  Surface roughness length [m]


You have requested that the following file(s) be generated:

   TurbSim_ws_wake10.wnd (AeroDyn/BLADED full-field wnd file)


Turbulence Simulation Scaling Parameter Summary:

   Turbulence model used                            =  IEC Kaimal
   Turbulence characteristic                        =  User-specified
   IEC standard                                     =  IEC 61400-1 Ed. 3: 2005
   Mean wind speed at hub height                    =   10.248 m/s
   Characteristic value of standard deviation       =    1.913 m/s
   Turbulence scale                                 =   42.000 m
   u-component integral scale                       =  340.200 m
   Coherency scale                                  =  340.200 m
   Characteristic value of hub turbulence intensity =   18.670%
   Gradient Richardson number                       =    0.000

   Wind profile type                                =  Power law
   Power law exponent                               =    0.110
   Mean shear across rotor disk                     =    0.013 (m/s)/m
   Assumed rotor diameter                           =  130.000 m
   Surface roughness length                         =    0.030 m

   Number of time steps in the FFT                  =    64372
   Number of time steps output                      =    64269


Mean Flow Angles:

   Vertical   =   0.0 degrees
   Horizontal =   0.0 degrees

Mean Wind Speed Profile:

   Height    Wind Speed   Horizontal Angle  U-comp (X)   V-comp (Y)   W-comp (Z)
     (m)        (m/s)         (degrees)       (m/s)        (m/s)        (m/s)   
   ------    ----------   ----------------  ----------   ----------   ----------
    165.0       10.83            0.00         10.83         0.00         0.00
    152.0       10.73            0.00         10.73         0.00         0.00
    139.0       10.63            0.00         10.63         0.00         0.00
    126.0       10.51            0.00         10.51         0.00         0.00
    113.0       10.39            0.00         10.39         0.00         0.00
    100.0       10.25            0.00         10.25         0.00         0.00
     87.0       10.09            0.00         10.09         0.00         0.00
     74.0        9.91            0.00          9.91         0.00         0.00
     61.0        9.71            0.00          9.71         0.00         0.00
     48.0        9.45            0.00          9.45         0.00         0.00
     35.0        9.13            0.00          9.13         0.00         0.00


Harvested Random Seeds after Generation of the Random Numbers:

    108559305 K1
            0 K2


Hub-Height Simulated Turbulence Statistical Summary:

   Type of Wind        Min (m/s)   Mean (m/s)    Max (m/s)  Sigma (m/s)       TI (%)
   ----------------    ---------   ----------    ---------  -----------       ------
   Longitudinal (u)         4.32        10.25        15.88        1.876       18.310
   Lateral (v)             -5.57         0.00         5.02        1.501       14.650
   Vertical (w)            -3.49         0.00         3.11        0.947        9.242
   U component              4.32        10.25        15.88        1.876       18.310
   V component             -5.57         0.00         5.02        1.501       14.650
   W component             -3.49         0.00         3.11        0.947        9.242
   Horizontal (U&V)         4.39        10.36        15.90        1.864       17.989
   Total                    4.44        10.40        15.92        1.859       17.863

                       Min Reynolds     Mean Reynolds    Max Reynolds    Correlation
   Product             Stress (m/s)^2   Stress (m/s)^2   Stress (m/s)^2  Coefficient
   ----------------    --------------   --------------   --------------  -----------
   u'w'                    -10.991             0.027             9.815         0.015
   u'v'                    -15.928             0.231            14.833         0.082
   v'w'                     -7.857             0.080             8.168         0.056


   Friction Velocity (Ustar)  =      0.166 m/s
   Maximum Instantaneous TKE  =     19.407 (m/s)^2
   Maximum Instantaneous CTKE =      9.348 (m/s)^2


Grid Point Variance Summary:

   Y-coord  -65.00  -52.00  -39.00  -26.00  -13.00    0.00   13.00   26.00   39.00   52.00   65.00

   Height   Standard deviation at grid points for the u component:
   165.00    1.788   1.879   1.957   1.909   1.862   1.910   1.903   1.957   2.058   1.760   1.725
   152.00    1.808   1.897   1.863   1.901   1.761   1.945   2.080   1.920   1.954   1.882   1.910
   139.00    1.677   1.826   1.885   1.774   1.793   1.856   1.859   1.833   1.858   1.695   1.738
   126.00    1.701   1.779   1.789   1.714   1.736   1.783   1.803   1.762   1.690   1.790   1.791
   113.00    1.701   1.784   1.745   1.801   1.762   1.688   1.668   1.556   1.681   1.724   1.739
   100.00    1.583   1.797   1.878   1.685   1.721   1.876   1.835   1.556   1.637   1.712   1.678
    87.00    1.587   1.634   1.737   1.770   1.750   1.662   1.813   1.594   1.590   1.690   1.618
    74.00    1.520   1.504   1.517   1.572   1.617   1.692   1.745   1.596   1.620   1.741   1.794
    61.00    1.542   1.398   1.541   1.636   1.555   1.707   1.741   1.584   1.567   1.562   1.820
    48.00    1.665   1.427   1.523   1.575   1.551   1.661   1.501   1.645   1.525   1.765   1.776
    35.00    1.819   1.541   1.577   1.463   1.610   1.662   1.558   1.570   1.747   1.784   1.802

   Height   Standard deviation at grid points for the v component:
   165.00    1.501   1.501   1.501   1.501   1.501   1.501   1.501   1.501   1.501   1.501   1.501
   152.00    1.501   1.501   1.501   1.501   1.501   1.501   1.501   1.501   1.501   1.501   1.501
   139.00    1.501   1.501   1.501   1.501   1.501   1.501   1.501   1.501   1.501   1.501   1.501
   126.00    1.501   1.501   1.501   1.501   1.501   1.501   1.501   1.501   1.501   1.501   1.501
   113.00    1.501   1.501   1.501   1.501   1.501   1.501   1.501   1.501   1.501   1.501   1.501
   100.00    1.501   1.501   1.501   1.501   1.501   1.501   1.501   1.501   1.501   1.501   1.501
    87.00    1.501   1.501   1.501   1.501   1.501   1.501   1.501   1.501   1.501   1.501   1.501
    74.00    1.501   1.501   1.501   1.501   1.501   1.501   1.501   1.501   1.501   1.501   1.501
    61.00    1.501   1.501   1.501   1.501   1.501   1.501   1.501   1.501   1.501   1.501   1.501
    48.00    1.501   1.501   1.501   1.501   1.501   1.501   1.501   1.501   1.501   1.501   1.501
    35.00    1.501   1.501   1.501   1.501   1.501   1.501   1.501   1.501   1.501   1.501   1.501

   Height   Standard deviation at grid points for the w component:
   165.00    0.947   0.947   0.947   0.947   0.947   0.947   0.947   0.947   0.947   0.947   0.947
   152.00    0.947   0.947   0.947   0.947   0.947   0.947   0.947   0.947   0.947   0.947   0.947
   139.00    0.947   0.947   0.947   0.947   0.947   0.947   0.947   0.947   0.947   0.947   0.947
   126.00    0.947   0.947   0.947   0.947   0.947   0.947   0.947   0.947   0.947   0.947   0.947
   113.00    0.947   0.947   0.947   0.947   0.947   0.947   0.947   0.947   0.947   0.947   0.947
   100.00    0.947   0.947   0.947   0.947   0.947   0.947   0.947   0.947   0.947   0.947   0.947
    87.00    0.947   0.947   0.947   0.947   0.947   0.947   0.947   0.947   0.947   0.947   0.947
    74.00    0.947   0.947   0.947   0.947   0.947   0.947   0.947   0.947   0.947   0.947   0.947
    61.00    0.947   0.947   0.947   0.947   0.947   0.947   0.947   0.947   0.947   0.947   0.947
    48.00    0.947   0.947   0.947   0.947   0.947   0.947   0.947   0.947   0.947   0.947   0.947
    35.00    0.947   0.947   0.947   0.947   0.947   0.947   0.947   0.947   0.947   0.947   0.947

   Mean standard deviation across all grid points:
      u component:    1.722 m/s
      v component:    1.501 m/s
      w component:    0.947 m/s


U-component (X) statistics from the hub grid point:

   Mean =  10.2485 m/s
   TI   =  18.3096 %


Normalizing Parameters for Binary Data (approximate statistics):

   UBar  =  10.2485 m/s
   TI(u) =  18.3096 %
   TI(v) =  14.6503 %
   TI(w) =   9.2420 %

   Height Offset =   0.0000 m
   Grid Base     =  35.0000 m

Nyquist frequency of turbulent wind field =        50.000 Hz


Processing complete.  10.469 CPU seconds used.
