
This summary file was generated by TurbSim (v1.06.00, 21-Sep-2012) on 04-Oct-2016 at 11:37:40.


Runtime Options:

   2318573  Random seed #1
    RANLUX  Type of random number generator
         F  Output binary HH turbulence parameters?
         F  Output formatted turbulence parameters?
         F  Output AeroDyn HH files?
         F  Output AeroDyn FF files?
         T  Output BLADED FF files?
         F  Output tower data?
         F  Output formatted FF files?
         F  Output coherent turbulence time step file?
         T  Clockwise rotation when looking downwind?
 0 -  NONE  IEC turbulence models scaled to exact specified standard deviation


Turbine/Model Specifications:

        11  Vertical grid-point matrix dimension
        11  Horizontal grid-point matrix dimension
     0.010  Time step [seconds]
   630.000  Analysis time [seconds]
   630.000  Usable output time [seconds]
   100.000  Hub height [m]
   150.000  Grid height [m]
   110.000  Grid width [m]
     0.000  Vertical flow angle [degrees]
     0.000  Horizontal flow angle [degrees]


Meteorological Boundary Conditions:

    IECKAI  IEC Kaimal spectral model
         1  IEC standard: IEC 61400-1 Ed. 3: 2005
    13.700  Percent turbulence intensity, IEC 61400-1 Ed. 3: 2005
       NTM  IEC Normal Turbulence Model
       N/A  IEC Extreme Turbulence Model (ETM) "c" parameter [m/s]
       PL   Wind profile type
    80.000  Reference height [m]
    25.000  Reference wind speed [m/s]
       N/A  Jet height [m]
     0.110  Power law exponent
     0.030  Surface roughness length [m]


You have requested that the following file(s) be generated:

   TurbSim_ws_wake25.wnd (AeroDyn/BLADED full-field wnd file)


Turbulence Simulation Scaling Parameter Summary:

   Turbulence model used                            =  IEC Kaimal
   Turbulence characteristic                        =  User-specified
   IEC standard                                     =  IEC 61400-1 Ed. 3: 2005
   Mean wind speed at hub height                    =   25.621 m/s
   Characteristic value of standard deviation       =    3.510 m/s
   Turbulence scale                                 =   42.000 m
   u-component integral scale                       =  340.200 m
   Coherency scale                                  =  340.200 m
   Characteristic value of hub turbulence intensity =   13.700%
   Gradient Richardson number                       =    0.000

   Wind profile type                                =  Power law
   Power law exponent                               =    0.110
   Mean shear across rotor disk                     =    0.031 (m/s)/m
   Assumed rotor diameter                           =  110.000 m
   Surface roughness length                         =    0.030 m

   Number of time steps in the FFT                  =    63480
   Number of time steps output                      =    63430


Mean Flow Angles:

   Vertical   =   0.0 degrees
   Horizontal =   0.0 degrees

Mean Wind Speed Profile:

   Height    Wind Speed   Horizontal Angle  U-comp (X)   V-comp (Y)   W-comp (Z)
     (m)        (m/s)         (degrees)       (m/s)        (m/s)        (m/s)   
   ------    ----------   ----------------  ----------   ----------   ----------
    155.0       26.89            0.00         26.89         0.00         0.00
    140.0       26.59            0.00         26.59         0.00         0.00
    125.0       26.26            0.00         26.26         0.00         0.00
    110.0       25.89            0.00         25.89         0.00         0.00
    100.0       25.62            0.00         25.62         0.00         0.00
     95.0       25.48            0.00         25.48         0.00         0.00
     80.0       25.00            0.00         25.00         0.00         0.00
     65.0       24.44            0.00         24.44         0.00         0.00
     50.0       23.74            0.00         23.74         0.00         0.00
     35.0       22.83            0.00         22.83         0.00         0.00
     20.0       21.46            0.00         21.46         0.00         0.00
      5.0       18.43            0.00         18.43         0.00         0.00


Harvested Random Seeds after Generation of the Random Numbers:

    107939805 K1
            0 K2


Hub-Height Simulated Turbulence Statistical Summary:

   Type of Wind        Min (m/s)   Mean (m/s)    Max (m/s)  Sigma (m/s)       TI (%)
   ----------------    ---------   ----------    ---------  -----------       ------
   Longitudinal (u)        13.47        25.62        37.96        3.268       12.754
   Lateral (v)            -12.86         0.00        10.35        2.777       10.838
   Vertical (w)            -6.74         0.00         7.03        1.733        6.765
   U component             13.47        25.62        37.96        3.268       12.754
   V component            -12.86         0.00        10.35        2.777       10.838
   W component             -6.74         0.00         7.03        1.733        6.765
   Horizontal (U&V)        13.73        25.77        37.96        3.256       12.635
   Total                   13.77        25.83        37.98        3.254       12.597

                       Min Reynolds     Mean Reynolds    Max Reynolds    Correlation
   Product             Stress (m/s)^2   Stress (m/s)^2   Stress (m/s)^2  Coefficient
   ----------------    --------------   --------------   --------------  -----------
   u'w'                    -47.411            -0.186            44.650        -0.033
   u'v'                    -72.436            -0.960            70.990        -0.106
   v'w'                    -33.833             0.472            36.937         0.098


   Friction Velocity (Ustar)  =      0.431 m/s
   Maximum Instantaneous TKE  =     82.857 (m/s)^2
   Maximum Instantaneous CTKE =     37.512 (m/s)^2


Grid Point Variance Summary:

   Y-coord  -55.00  -44.00  -33.00  -22.00  -11.00    0.00   11.00   22.00   33.00   44.00   55.00

   Height   Standard deviation at grid points for the u component:
   155.00    3.358   3.316   3.405   3.377   3.274   3.242   3.123   3.224   3.044   3.169   3.170
   140.00    3.279   3.171   3.337   3.114   3.015   3.197   3.149   3.151   3.041   2.988   3.123
   125.00    3.321   3.157   3.118   2.982   3.177   3.228   3.149   3.034   3.196   2.984   3.108
   110.00    3.403   3.368   3.164   3.250   3.220   3.274   3.198   3.165   3.241   3.253   3.344
    95.00    3.341   3.374   3.467   3.384   3.286   3.238   3.196   3.045   3.134   3.373   3.417
    80.00    3.224   3.068   3.304   3.289   3.370   3.104   3.182   3.037   3.270   3.342   3.528
    65.00    3.218   3.150   3.105   3.139   3.281   3.323   3.311   3.215   3.357   3.515   3.556
    50.00    3.643   3.566   3.439   3.578   3.408   3.321   3.334   3.271   3.421   3.645   3.571
    35.00    3.688   3.589   3.834   3.643   3.666   3.702   3.610   3.514   3.637   3.602   3.651
    20.00    3.629   3.728   3.599   3.886   3.798   3.716   3.622   3.676   3.528   3.655   3.538
     5.00    3.431   3.585   3.728   3.736   3.732   3.807   3.613   3.781   3.752   3.557   3.509

   Height   Standard deviation at grid points for the v component:
   155.00    2.777   2.777   2.777   2.777   2.777   2.777   2.777   2.777   2.777   2.777   2.777
   140.00    2.777   2.777   2.777   2.777   2.777   2.777   2.777   2.777   2.777   2.777   2.777
   125.00    2.777   2.777   2.777   2.777   2.777   2.777   2.777   2.777   2.777   2.777   2.777
   110.00    2.777   2.777   2.777   2.777   2.777   2.777   2.777   2.777   2.777   2.777   2.777
    95.00    2.777   2.777   2.777   2.777   2.777   2.777   2.777   2.777   2.777   2.777   2.777
    80.00    2.777   2.777   2.777   2.777   2.777   2.777   2.777   2.777   2.777   2.777   2.777
    65.00    2.777   2.777   2.777   2.777   2.777   2.777   2.777   2.777   2.777   2.777   2.777
    50.00    2.777   2.777   2.777   2.777   2.777   2.777   2.777   2.777   2.777   2.777   2.777
    35.00    2.777   2.777   2.777   2.777   2.777   2.777   2.777   2.777   2.777   2.777   2.777
    20.00    2.777   2.777   2.777   2.777   2.777   2.777   2.777   2.777   2.777   2.777   2.777
     5.00    2.777   2.777   2.777   2.777   2.777   2.777   2.777   2.777   2.777   2.777   2.777

   Height   Standard deviation at grid points for the w component:
   155.00    1.733   1.733   1.733   1.733   1.733   1.733   1.733   1.733   1.733   1.733   1.733
   140.00    1.733   1.733   1.733   1.733   1.733   1.733   1.733   1.733   1.733   1.733   1.733
   125.00    1.733   1.733   1.733   1.733   1.733   1.733   1.733   1.733   1.733   1.733   1.733
   110.00    1.733   1.733   1.733   1.733   1.733   1.733   1.733   1.733   1.733   1.733   1.733
    95.00    1.733   1.733   1.733   1.733   1.733   1.733   1.733   1.733   1.733   1.733   1.733
    80.00    1.733   1.733   1.733   1.733   1.733   1.733   1.733   1.733   1.733   1.733   1.733
    65.00    1.733   1.733   1.733   1.733   1.733   1.733   1.733   1.733   1.733   1.733   1.733
    50.00    1.733   1.733   1.733   1.733   1.733   1.733   1.733   1.733   1.733   1.733   1.733
    35.00    1.733   1.733   1.733   1.733   1.733   1.733   1.733   1.733   1.733   1.733   1.733
    20.00    1.733   1.733   1.733   1.733   1.733   1.733   1.733   1.733   1.733   1.733   1.733
     5.00    1.733   1.733   1.733   1.733   1.733   1.733   1.733   1.733   1.733   1.733   1.733

   Mean standard deviation across all grid points:
      u component:    3.369 m/s
      v component:    2.777 m/s
      w component:    1.733 m/s


U-component (X) statistics from the interpolated hub point:

   Mean =  25.6151 m/s
   TI   =  11.6039 %


Normalizing Parameters for Binary Data (approximate statistics):

   UBar  =  25.6212 m/s
   TI(u) =  12.7542 %
   TI(v) =  10.8385 %
   TI(w) =   6.7655 %

   Height Offset =  20.0000 m
   Grid Base     =   5.0000 m

Nyquist frequency of turbulent wind field =        50.000 Hz


Processing complete.  8.7031 CPU seconds used.
