
This summary file was generated by TurbSim (v1.06.00, 21-Sep-2012) on 04-Oct-2016 at 11:36:57.


Runtime Options:

   2318573  Random seed #1
    RANLUX  Type of random number generator
         F  Output binary HH turbulence parameters?
         F  Output formatted turbulence parameters?
         F  Output AeroDyn HH files?
         F  Output AeroDyn FF files?
         T  Output BLADED FF files?
         F  Output tower data?
         F  Output formatted FF files?
         F  Output coherent turbulence time step file?
         T  Clockwise rotation when looking downwind?
 0 -  NONE  IEC turbulence models scaled to exact specified standard deviation


Turbine/Model Specifications:

        11  Vertical grid-point matrix dimension
        11  Horizontal grid-point matrix dimension
     0.010  Time step [seconds]
   630.000  Analysis time [seconds]
   630.000  Usable output time [seconds]
   100.000  Hub height [m]
   150.000  Grid height [m]
   110.000  Grid width [m]
     0.000  Vertical flow angle [degrees]
     0.000  Horizontal flow angle [degrees]


Meteorological Boundary Conditions:

    IECKAI  IEC Kaimal spectral model
         1  IEC standard: IEC 61400-1 Ed. 3: 2005
    18.670  Percent turbulence intensity, IEC 61400-1 Ed. 3: 2005
       NTM  IEC Normal Turbulence Model
       N/A  IEC Extreme Turbulence Model (ETM) "c" parameter [m/s]
       PL   Wind profile type
    80.000  Reference height [m]
    10.000  Reference wind speed [m/s]
       N/A  Jet height [m]
     0.110  Power law exponent
     0.030  Surface roughness length [m]


You have requested that the following file(s) be generated:

   TurbSim_ws_wake10.wnd (AeroDyn/BLADED full-field wnd file)


Turbulence Simulation Scaling Parameter Summary:

   Turbulence model used                            =  IEC Kaimal
   Turbulence characteristic                        =  User-specified
   IEC standard                                     =  IEC 61400-1 Ed. 3: 2005
   Mean wind speed at hub height                    =   10.248 m/s
   Characteristic value of standard deviation       =    1.913 m/s
   Turbulence scale                                 =   42.000 m
   u-component integral scale                       =  340.200 m
   Coherency scale                                  =  340.200 m
   Characteristic value of hub turbulence intensity =   18.670%
   Gradient Richardson number                       =    0.000

   Wind profile type                                =  Power law
   Power law exponent                               =    0.110
   Mean shear across rotor disk                     =    0.012 (m/s)/m
   Assumed rotor diameter                           =  110.000 m
   Surface roughness length                         =    0.030 m

   Number of time steps in the FFT                  =    64152
   Number of time steps output                      =    64074


Mean Flow Angles:

   Vertical   =   0.0 degrees
   Horizontal =   0.0 degrees

Mean Wind Speed Profile:

   Height    Wind Speed   Horizontal Angle  U-comp (X)   V-comp (Y)   W-comp (Z)
     (m)        (m/s)         (degrees)       (m/s)        (m/s)        (m/s)   
   ------    ----------   ----------------  ----------   ----------   ----------
    155.0       10.75            0.00         10.75         0.00         0.00
    140.0       10.63            0.00         10.63         0.00         0.00
    125.0       10.50            0.00         10.50         0.00         0.00
    110.0       10.36            0.00         10.36         0.00         0.00
    100.0       10.25            0.00         10.25         0.00         0.00
     95.0       10.19            0.00         10.19         0.00         0.00
     80.0       10.00            0.00         10.00         0.00         0.00
     65.0        9.77            0.00          9.77         0.00         0.00
     50.0        9.50            0.00          9.50         0.00         0.00
     35.0        9.13            0.00          9.13         0.00         0.00
     20.0        8.59            0.00          8.59         0.00         0.00
      5.0        7.37            0.00          7.37         0.00         0.00


Harvested Random Seeds after Generation of the Random Numbers:

    109082457 K1
            0 K2


Hub-Height Simulated Turbulence Statistical Summary:

   Type of Wind        Min (m/s)   Mean (m/s)    Max (m/s)  Sigma (m/s)       TI (%)
   ----------------    ---------   ----------    ---------  -----------       ------
   Longitudinal (u)         5.01        10.25        15.47        1.972       19.245
   Lateral (v)             -5.10         0.00         6.73        1.501       14.649
   Vertical (w)            -4.02         0.00         3.51        0.947        9.242
   U component              5.01        10.25        15.47        1.972       19.245
   V component             -5.10         0.00         6.73        1.501       14.649
   W component             -4.02         0.00         3.51        0.947        9.242
   Horizontal (U&V)         5.04        10.36        15.47        1.960       18.922
   Total                    5.04        10.41        15.53        1.950       18.738

                       Min Reynolds     Mean Reynolds    Max Reynolds    Correlation
   Product             Stress (m/s)^2   Stress (m/s)^2   Stress (m/s)^2  Coefficient
   ----------------    --------------   --------------   --------------  -----------
   u'w'                    -11.670             0.125            12.807         0.067
   u'v'                    -18.189            -0.360            15.267        -0.122
   v'w'                    -15.318            -0.050             9.725        -0.035


   Friction Velocity (Ustar)  =      0.354 m/s
   Maximum Instantaneous TKE  =     23.254 (m/s)^2
   Maximum Instantaneous CTKE =      9.601 (m/s)^2


Grid Point Variance Summary:

   Y-coord  -55.00  -44.00  -33.00  -22.00  -11.00    0.00   11.00   22.00   33.00   44.00   55.00

   Height   Standard deviation at grid points for the u component:
   155.00    1.859   1.884   2.128   2.311   2.170   2.381   2.263   2.109   2.114   2.101   2.238
   140.00    1.998   1.809   1.844   2.080   2.088   2.193   2.192   2.312   2.103   2.309   2.359
   125.00    1.979   1.997   1.979   2.116   2.032   2.108   2.132   2.246   2.205   2.190   2.077
   110.00    2.094   2.081   1.938   1.853   1.905   2.087   2.075   2.261   2.116   2.117   1.992
    95.00    2.017   1.935   1.741   1.818   1.967   1.967   2.032   2.088   2.091   1.916   1.801
    80.00    1.783   1.874   1.853   1.853   1.811   1.966   2.095   2.148   2.129   2.058   2.015
    65.00    1.637   1.683   1.778   1.774   1.788   1.837   2.014   2.086   2.177   2.065   2.335
    50.00    1.880   1.935   1.890   1.892   1.842   1.954   1.893   2.007   2.127   2.210   2.189
    35.00    1.921   1.909   1.812   1.777   1.783   1.912   1.980   2.258   2.302   2.158   2.146
    20.00    1.825   1.898   1.849   1.670   1.574   1.794   1.782   2.142   2.198   2.083   2.078
     5.00    1.818   1.823   1.857   1.635   1.680   1.694   1.829   2.055   2.021   1.930   1.944

   Height   Standard deviation at grid points for the v component:
   155.00    1.501   1.501   1.501   1.501   1.501   1.501   1.501   1.501   1.501   1.501   1.501
   140.00    1.501   1.501   1.501   1.501   1.501   1.501   1.501   1.501   1.501   1.501   1.501
   125.00    1.501   1.501   1.501   1.501   1.501   1.501   1.501   1.501   1.501   1.501   1.501
   110.00    1.501   1.501   1.501   1.501   1.501   1.501   1.501   1.501   1.501   1.501   1.501
    95.00    1.501   1.501   1.501   1.501   1.501   1.501   1.501   1.501   1.501   1.501   1.501
    80.00    1.501   1.501   1.501   1.501   1.501   1.501   1.501   1.501   1.501   1.501   1.501
    65.00    1.501   1.501   1.501   1.501   1.501   1.501   1.501   1.501   1.501   1.501   1.501
    50.00    1.501   1.501   1.501   1.501   1.501   1.501   1.501   1.501   1.501   1.501   1.501
    35.00    1.501   1.501   1.501   1.501   1.501   1.501   1.501   1.501   1.501   1.501   1.501
    20.00    1.501   1.501   1.501   1.501   1.501   1.501   1.501   1.501   1.501   1.501   1.501
     5.00    1.501   1.501   1.501   1.501   1.501   1.501   1.501   1.501   1.501   1.501   1.501

   Height   Standard deviation at grid points for the w component:
   155.00    0.947   0.947   0.947   0.947   0.947   0.947   0.947   0.947   0.947   0.947   0.947
   140.00    0.947   0.947   0.947   0.947   0.947   0.947   0.947   0.947   0.947   0.947   0.947
   125.00    0.947   0.947   0.947   0.947   0.947   0.947   0.947   0.947   0.947   0.947   0.947
   110.00    0.947   0.947   0.947   0.947   0.947   0.947   0.947   0.947   0.947   0.947   0.947
    95.00    0.947   0.947   0.947   0.947   0.947   0.947   0.947   0.947   0.947   0.947   0.947
    80.00    0.947   0.947   0.947   0.947   0.947   0.947   0.947   0.947   0.947   0.947   0.947
    65.00    0.947   0.947   0.947   0.947   0.947   0.947   0.947   0.947   0.947   0.947   0.947
    50.00    0.947   0.947   0.947   0.947   0.947   0.947   0.947   0.947   0.947   0.947   0.947
    35.00    0.947   0.947   0.947   0.947   0.947   0.947   0.947   0.947   0.947   0.947   0.947
    20.00    0.947   0.947   0.947   0.947   0.947   0.947   0.947   0.947   0.947   0.947   0.947
     5.00    0.947   0.947   0.947   0.947   0.947   0.947   0.947   0.947   0.947   0.947   0.947

   Mean standard deviation across all grid points:
      u component:    1.996 m/s
      v component:    1.501 m/s
      w component:    0.947 m/s


U-component (X) statistics from the interpolated hub point:

   Mean =  10.2461 m/s
   TI   =  18.1499 %


Normalizing Parameters for Binary Data (approximate statistics):

   UBar  =  10.2485 m/s
   TI(u) =  19.2451 %
   TI(v) =  14.6495 %
   TI(w) =   9.2418 %

   Height Offset =  20.0000 m
   Grid Base     =   5.0000 m

Nyquist frequency of turbulent wind field =        50.000 Hz


Processing complete.  8.375 CPU seconds used.
