
This summary file was generated by TurbSim (v1.06.00, 21-Sep-2012) on 04-Oct-2016 at 11:36:41.


Runtime Options:

   2318573  Random seed #1
    RANLUX  Type of random number generator
         F  Output binary HH turbulence parameters?
         F  Output formatted turbulence parameters?
         F  Output AeroDyn HH files?
         F  Output AeroDyn FF files?
         T  Output BLADED FF files?
         F  Output tower data?
         F  Output formatted FF files?
         F  Output coherent turbulence time step file?
         T  Clockwise rotation when looking downwind?
 0 -  NONE  IEC turbulence models scaled to exact specified standard deviation


Turbine/Model Specifications:

        11  Vertical grid-point matrix dimension
        11  Horizontal grid-point matrix dimension
     0.010  Time step [seconds]
   630.000  Analysis time [seconds]
   630.000  Usable output time [seconds]
   100.000  Hub height [m]
   150.000  Grid height [m]
   110.000  Grid width [m]
     0.000  Vertical flow angle [degrees]
     0.000  Horizontal flow angle [degrees]


Meteorological Boundary Conditions:

    IECKAI  IEC Kaimal spectral model
         1  IEC standard: IEC 61400-1 Ed. 3: 2005
    26.670  Percent turbulence intensity, IEC 61400-1 Ed. 3: 2005
       NTM  IEC Normal Turbulence Model
       N/A  IEC Extreme Turbulence Model (ETM) "c" parameter [m/s]
       PL   Wind profile type
    80.000  Reference height [m]
     5.000  Reference wind speed [m/s]
       N/A  Jet height [m]
     0.110  Power law exponent
     0.030  Surface roughness length [m]


You have requested that the following file(s) be generated:

   TurbSim_ws_wake5.wnd (AeroDyn/BLADED full-field wnd file)


Turbulence Simulation Scaling Parameter Summary:

   Turbulence model used                            =  IEC Kaimal
   Turbulence characteristic                        =  User-specified
   IEC standard                                     =  IEC 61400-1 Ed. 3: 2005
   Mean wind speed at hub height                    =    5.124 m/s
   Characteristic value of standard deviation       =    1.367 m/s
   Turbulence scale                                 =   42.000 m
   u-component integral scale                       =  340.200 m
   Coherency scale                                  =  340.200 m
   Characteristic value of hub turbulence intensity =   26.670%
   Gradient Richardson number                       =    0.000

   Wind profile type                                =  Power law
   Power law exponent                               =    0.110
   Mean shear across rotor disk                     =    0.006 (m/s)/m
   Assumed rotor diameter                           =  110.000 m
   Surface roughness length                         =    0.030 m

   Number of time steps in the FFT                  =    65208
   Number of time steps output                      =    65147


Mean Flow Angles:

   Vertical   =   0.0 degrees
   Horizontal =   0.0 degrees

Mean Wind Speed Profile:

   Height    Wind Speed   Horizontal Angle  U-comp (X)   V-comp (Y)   W-comp (Z)
     (m)        (m/s)         (degrees)       (m/s)        (m/s)        (m/s)   
   ------    ----------   ----------------  ----------   ----------   ----------
    155.0        5.38            0.00          5.38         0.00         0.00
    140.0        5.32            0.00          5.32         0.00         0.00
    125.0        5.25            0.00          5.25         0.00         0.00
    110.0        5.18            0.00          5.18         0.00         0.00
    100.0        5.12            0.00          5.12         0.00         0.00
     95.0        5.10            0.00          5.10         0.00         0.00
     80.0        5.00            0.00          5.00         0.00         0.00
     65.0        4.89            0.00          4.89         0.00         0.00
     50.0        4.75            0.00          4.75         0.00         0.00
     35.0        4.57            0.00          4.57         0.00         0.00
     20.0        4.29            0.00          4.29         0.00         0.00
      5.0        3.69            0.00          3.69         0.00         0.00


Harvested Random Seeds after Generation of the Random Numbers:

    110878053 K1
            0 K2


Hub-Height Simulated Turbulence Statistical Summary:

   Type of Wind        Min (m/s)   Mean (m/s)    Max (m/s)  Sigma (m/s)       TI (%)
   ----------------    ---------   ----------    ---------  -----------       ------
   Longitudinal (u)         2.46         5.12         7.92        0.837       16.327
   Lateral (v)             -3.42         0.00         3.63        1.056       20.610
   Vertical (w)            -2.19         0.00         2.29        0.675       13.177
   U component              2.46         5.12         7.92        0.837       16.327
   V component             -3.42         0.00         3.63        1.056       20.610
   W component             -2.19         0.00         2.29        0.675       13.177
   Horizontal (U&V)         2.67         5.23         7.92        0.835       15.951
   Total                    2.74         5.28         7.92        0.831       15.758

                       Min Reynolds     Mean Reynolds    Max Reynolds    Correlation
   Product             Stress (m/s)^2   Stress (m/s)^2   Stress (m/s)^2  Coefficient
   ----------------    --------------   --------------   --------------  -----------
   u'w'                     -4.159            -0.091             2.454        -0.160
   u'v'                     -6.051             0.192             5.841         0.218
   v'w'                     -5.235            -0.018             5.158        -0.025


   Friction Velocity (Ustar)  =      0.301 m/s
   Maximum Instantaneous TKE  =      6.932 (m/s)^2
   Maximum Instantaneous CTKE =      3.559 (m/s)^2


Grid Point Variance Summary:

   Y-coord  -55.00  -44.00  -33.00  -22.00  -11.00    0.00   11.00   22.00   33.00   44.00   55.00

   Height   Standard deviation at grid points for the u component:
   155.00    1.227   1.180   0.963   0.893   0.921   0.892   0.891   0.990   1.018   0.897   0.972
   140.00    1.153   1.041   0.990   0.909   0.912   0.949   0.865   0.968   1.014   1.046   1.123
   125.00    1.024   0.917   0.874   1.098   1.088   0.994   0.977   0.921   1.111   1.048   1.176
   110.00    1.012   1.035   0.955   0.974   1.023   0.933   0.981   1.038   1.111   1.085   1.178
    95.00    1.107   1.042   0.985   0.960   0.905   0.854   0.921   0.892   1.096   1.020   1.063
    80.00    1.179   1.170   1.030   0.965   0.888   0.996   0.959   0.987   1.122   1.146   1.219
    65.00    1.356   1.212   1.201   1.013   1.016   1.014   1.050   1.014   1.102   1.126   1.069
    50.00    1.559   1.383   1.401   1.194   1.050   1.022   0.954   1.071   1.087   1.149   1.096
    35.00    1.523   1.483   1.445   1.199   1.292   1.060   1.053   1.037   1.021   1.112   1.115
    20.00    1.388   1.283   1.289   1.262   1.180   1.102   1.228   1.104   1.011   1.149   1.117
     5.00    1.243   1.264   1.361   1.337   1.278   1.211   1.227   1.163   1.154   1.152   1.149

   Height   Standard deviation at grid points for the v component:
   155.00    1.056   1.056   1.056   1.056   1.056   1.056   1.056   1.056   1.056   1.056   1.056
   140.00    1.056   1.056   1.056   1.056   1.056   1.056   1.056   1.056   1.056   1.056   1.056
   125.00    1.056   1.056   1.056   1.056   1.056   1.056   1.056   1.056   1.056   1.056   1.056
   110.00    1.056   1.056   1.056   1.056   1.056   1.056   1.056   1.056   1.056   1.056   1.056
    95.00    1.056   1.056   1.056   1.056   1.056   1.056   1.056   1.056   1.056   1.056   1.056
    80.00    1.056   1.056   1.056   1.056   1.056   1.056   1.056   1.056   1.056   1.056   1.056
    65.00    1.056   1.056   1.056   1.056   1.056   1.056   1.056   1.056   1.056   1.056   1.056
    50.00    1.056   1.056   1.056   1.056   1.056   1.056   1.056   1.056   1.056   1.056   1.056
    35.00    1.056   1.056   1.056   1.056   1.056   1.056   1.056   1.056   1.056   1.056   1.056
    20.00    1.056   1.056   1.056   1.056   1.056   1.056   1.056   1.056   1.056   1.056   1.056
     5.00    1.056   1.056   1.056   1.056   1.056   1.056   1.056   1.056   1.056   1.056   1.056

   Height   Standard deviation at grid points for the w component:
   155.00    0.675   0.675   0.675   0.675   0.675   0.675   0.675   0.675   0.675   0.675   0.675
   140.00    0.675   0.675   0.675   0.675   0.675   0.675   0.675   0.675   0.675   0.675   0.675
   125.00    0.675   0.675   0.675   0.675   0.675   0.675   0.675   0.675   0.675   0.675   0.675
   110.00    0.675   0.675   0.675   0.675   0.675   0.675   0.675   0.675   0.675   0.675   0.675
    95.00    0.675   0.675   0.675   0.675   0.675   0.675   0.675   0.675   0.675   0.675   0.675
    80.00    0.675   0.675   0.675   0.675   0.675   0.675   0.675   0.675   0.675   0.675   0.675
    65.00    0.675   0.675   0.675   0.675   0.675   0.675   0.675   0.675   0.675   0.675   0.675
    50.00    0.675   0.675   0.675   0.675   0.675   0.675   0.675   0.675   0.675   0.675   0.675
    35.00    0.675   0.675   0.675   0.675   0.675   0.675   0.675   0.675   0.675   0.675   0.675
    20.00    0.675   0.675   0.675   0.675   0.675   0.675   0.675   0.675   0.675   0.675   0.675
     5.00    0.675   0.675   0.675   0.675   0.675   0.675   0.675   0.675   0.675   0.675   0.675

   Mean standard deviation across all grid points:
      u component:    1.091 m/s
      v component:    1.056 m/s
      w component:    0.675 m/s


U-component (X) statistics from the interpolated hub point:

   Mean =   5.1230 m/s
   TI   =  14.1199 %


Normalizing Parameters for Binary Data (approximate statistics):

   UBar  =   5.1242 m/s
   TI(u) =  16.3271 %
   TI(v) =  20.6100 %
   TI(w) =  13.1767 %

   Height Offset =  20.0000 m
   Grid Base     =   5.0000 m

Nyquist frequency of turbulent wind field =        50.000 Hz


Processing complete.  9.4688 CPU seconds used.
